<?xml version="1.0" encoding="UTF-8"?>

<!-- generated on Sat May 14 08:51:04 2016 by SUMO netconvert Version 0.25.0
<?xml version="1.0" encoding="UTF-8"?>

<configuration xmlns:xsi="http://www.w3.org/2001/XMLSchema-instance" xsi:noNamespaceSchemaLocation="http://sumo.dlr.de/xsd/netconvertConfiguration.xsd">

    <input>
        <type-files value="/local1/liborio/VehicularNetworking/workspace/sumo-0.25.0/data/typemap/osmNetconvert.typ.xml"/>
        <osm-files value="SFRCLT-road-only.osm"/>
    </input>

    <output>
        <output-file value="net.net.xml"/>
    </output>

    <projection>
        <proj.utm value="true"/>
    </projection>

</configuration>
-->

<net version="0.25" xmlns:xsi="http://www.w3.org/2001/XMLSchema-instance" xsi:noNamespaceSchemaLocation="http://sumo.dlr.de/xsd/net_file.xsd">

    <location netOffset="-549911.06,-4182762.44" convBoundary="0.00,0.00,2955.56,1577.42" origBoundary="-122.433107,37.790793,-122.399511,37.805008" projParameter="+proj=utm +zone=10 +ellps=WGS84 +datum=WGS84 +units=m +no_defs"/>

    <type id="highway.bridleway" priority="1" numLanes="1" speed="2.78" allow="pedestrian" oneway="1" width="2.00"/>
    <type id="highway.bus_guideway" priority="1" numLanes="1" speed="8.33" allow="bus" oneway="1"/>
    <type id="highway.cycleway" priority="1" numLanes="1" speed="5.56" allow="bicycle" oneway="0" width="1.00"/>
    <type id="highway.footway" priority="1" numLanes="1" speed="8.33" allow="pedestrian" oneway="1" width="2.00"/>
    <type id="highway.ford" priority="1" numLanes="1" speed="2.78" allow="army" oneway="0"/>
    <type id="highway.living_street" priority="3" numLanes="1" speed="2.78" disallow="tram rail_urban rail rail_electric ship" oneway="0"/>
    <type id="highway.motorway" priority="13" numLanes="2" speed="44.44" allow="private emergency authority army vip passenger hov taxi bus coach delivery truck trailer motorcycle evehicle custom1 custom2" oneway="1"/>
    <type id="highway.motorway_link" priority="12" numLanes="1" speed="22.22" allow="private emergency authority army vip passenger hov taxi bus coach delivery truck trailer motorcycle evehicle custom1 custom2" oneway="1"/>
    <type id="highway.path" priority="1" numLanes="1" speed="2.78" allow="bicycle pedestrian" oneway="1" width="2.00"/>
    <type id="highway.pedestrian" priority="1" numLanes="1" speed="8.33" allow="pedestrian" oneway="1" width="2.00"/>
    <type id="highway.primary" priority="9" numLanes="2" speed="27.78" disallow="tram rail_urban rail rail_electric ship" oneway="0"/>
    <type id="highway.primary_link" priority="8" numLanes="1" speed="22.22" disallow="tram rail_urban rail rail_electric ship" oneway="0"/>
    <type id="highway.raceway" priority="14" numLanes="2" speed="83.33" allow="vip" oneway="0"/>
    <type id="highway.residential" priority="4" numLanes="1" speed="13.89" disallow="tram rail_urban rail rail_electric ship" oneway="0"/>
    <type id="highway.secondary" priority="7" numLanes="2" speed="27.78" disallow="tram rail_urban rail rail_electric ship" oneway="0"/>
    <type id="highway.secondary_link" priority="6" numLanes="1" speed="22.22" disallow="tram rail_urban rail rail_electric ship" oneway="0"/>
    <type id="highway.service" priority="2" numLanes="1" speed="5.56" allow="delivery bicycle pedestrian" oneway="0"/>
    <type id="highway.services" priority="1" numLanes="1" speed="8.33" disallow="tram rail_urban rail rail_electric ship" oneway="0"/>
    <type id="highway.stairs" priority="1" numLanes="1" speed="1.39" allow="pedestrian" oneway="1" width="2.00"/>
    <type id="highway.step" priority="1" numLanes="1" speed="1.39" allow="pedestrian" oneway="1" width="2.00"/>
    <type id="highway.steps" priority="1" numLanes="1" speed="1.39" allow="pedestrian" oneway="1" width="2.00"/>
    <type id="highway.tertiary" priority="6" numLanes="1" speed="22.22" disallow="tram rail_urban rail rail_electric ship" oneway="0"/>
    <type id="highway.tertiary_link" priority="5" numLanes="1" speed="22.22" disallow="tram rail_urban rail rail_electric ship" oneway="0"/>
    <type id="highway.track" priority="1" numLanes="1" speed="5.56" disallow="tram rail_urban rail rail_electric ship" oneway="0"/>
    <type id="highway.trunk" priority="11" numLanes="2" speed="27.78" disallow="tram rail_urban rail rail_electric bicycle pedestrian ship" oneway="0"/>
    <type id="highway.trunk_link" priority="10" numLanes="1" speed="22.22" disallow="tram rail_urban rail rail_electric bicycle pedestrian ship" oneway="0"/>
    <type id="highway.unclassified" priority="5" numLanes="1" speed="13.89" disallow="tram rail_urban rail rail_electric ship" oneway="0"/>
    <type id="highway.unsurfaced" priority="1" numLanes="1" speed="8.33" disallow="tram rail_urban rail rail_electric ship" oneway="0"/>
    <type id="railway.light_rail" priority="15" numLanes="1" speed="27.78" allow="rail_urban" oneway="1"/>
    <type id="railway.preserved" priority="15" numLanes="1" speed="27.78" allow="rail" oneway="1"/>
    <type id="railway.rail" priority="15" numLanes="1" speed="83.33" allow="rail rail_electric" oneway="1"/>
    <type id="railway.subway" priority="15" numLanes="1" speed="27.78" allow="rail_urban" oneway="1"/>
    <type id="railway.tram" priority="15" numLanes="1" speed="13.89" allow="tram" oneway="1"/>

    <edge id=":1016079979_0" function="internal">
        <lane id=":1016079979_0_0" index="0" allow="delivery bicycle pedestrian" speed="5.56" length="4.99" shape="1772.87,679.95 1772.05,684.87"/>
    </edge>
    <edge id=":1016079979_1" function="internal">
        <lane id=":1016079979_1_0" index="0" allow="delivery bicycle pedestrian" speed="5.56" length="4.82" shape="1772.87,679.95 1771.86,681.03 1770.98,681.31 1770.23,680.77 1769.62,679.41"/>
    </edge>
    <edge id=":1016079979_2" function="internal">
        <lane id=":1016079979_2_0" index="0" allow="delivery bicycle pedestrian" speed="5.56" length="4.98" shape="1768.80,684.32 1769.62,679.41"/>
    </edge>
    <edge id=":1016079979_3" function="internal">
        <lane id=":1016079979_3_0" index="0" allow="delivery bicycle pedestrian" speed="5.56" length="4.82" shape="1768.80,684.32 1769.82,683.24 1770.70,682.97 1771.44,683.51 1772.05,684.87"/>
    </edge>
    <edge id=":1496341781_0" function="internal">
        <lane id=":1496341781_0_0" index="0" allow="delivery bicycle pedestrian" speed="5.56" length="4.82" shape="2117.37,521.26 2118.39,520.17 2119.27,519.90 2120.02,520.45 2120.63,521.80"/>
    </edge>
    <edge id=":1582859570_0" function="internal">
        <lane id=":1582859570_0_0" index="0" disallow="tram rail_urban rail rail_electric ship" speed="13.89" length="0.10" shape="1528.08,59.61 1528.08,59.61"/>
    </edge>
    <edge id=":1582859570_1" function="internal">
        <lane id=":1582859570_1_0" index="0" disallow="tram rail_urban rail rail_electric ship" speed="13.89" length="2.41" shape="1528.08,59.61 1527.07,60.70 1526.19,60.97"/>
    </edge>
    <edge id=":1582859570_4" function="internal">
        <lane id=":1582859570_4_0" index="0" speed="13.89" length="2.41" shape="1526.19,60.97 1525.44,60.43 1524.83,59.07"/>
    </edge>
    <edge id=":1582859570_2" function="internal">
        <lane id=":1582859570_2_0" index="0" disallow="tram rail_urban rail rail_electric ship" speed="13.89" length="0.10" shape="1524.83,59.07 1524.83,59.07"/>
    </edge>
    <edge id=":1582859570_3" function="internal">
        <lane id=":1582859570_3_0" index="0" disallow="tram rail_urban rail rail_electric ship" speed="13.89" length="2.41" shape="1524.83,59.07 1525.85,57.99 1526.73,57.72"/>
    </edge>
    <edge id=":1582859570_5" function="internal">
        <lane id=":1582859570_5_0" index="0" speed="13.89" length="2.41" shape="1526.73,57.72 1527.47,58.26 1528.08,59.61"/>
    </edge>
    <edge id=":2081671274_0" function="internal">
        <lane id=":2081671274_0_0" index="0" disallow="tram rail_urban rail rail_electric ship" speed="13.89" length="7.86" shape="1331.94,324.90 1332.55,323.61 1333.89,322.84 1335.96,322.59 1338.76,322.86"/>
    </edge>
    <edge id=":2081671274_1" function="internal">
        <lane id=":2081671274_1_0" index="0" disallow="tram rail_urban rail rail_electric ship" speed="13.89" length="4.82" shape="1331.94,324.90 1332.95,323.81 1333.83,323.53 1334.58,324.07 1335.20,325.42"/>
    </edge>
    <edge id=":2081701867_0" function="internal">
        <lane id=":2081701867_0_0" index="0" disallow="tram rail_urban rail rail_electric ship" speed="13.89" length="0.10" shape="1289.50,602.30 1289.51,602.27"/>
    </edge>
    <edge id=":2081701867_1" function="internal">
        <lane id=":2081701867_1_0" index="0" disallow="tram rail_urban rail rail_electric ship" speed="13.89" length="2.41" shape="1289.50,602.30 1288.47,603.36 1287.58,603.62"/>
    </edge>
    <edge id=":2081701867_4" function="internal">
        <lane id=":2081701867_4_0" index="0" speed="13.89" length="2.41" shape="1287.58,603.62 1286.85,603.06 1286.26,601.70"/>
    </edge>
    <edge id=":2081701867_2" function="internal">
        <lane id=":2081701867_2_0" index="0" disallow="tram rail_urban rail rail_electric ship" speed="13.89" length="0.10" shape="1286.26,601.70 1286.26,601.70"/>
    </edge>
    <edge id=":2081701867_3" function="internal">
        <lane id=":2081701867_3_0" index="0" disallow="tram rail_urban rail rail_electric ship" speed="13.89" length="2.41" shape="1286.26,601.70 1287.29,600.63 1288.17,600.36"/>
    </edge>
    <edge id=":2081701867_5" function="internal">
        <lane id=":2081701867_5_0" index="0" speed="13.89" length="2.41" shape="1288.17,600.36 1288.91,600.91 1289.51,602.27"/>
    </edge>
    <edge id=":2081705759_0" function="internal">
        <lane id=":2081705759_0_0" index="0" disallow="tram rail_urban rail rail_electric ship" speed="13.89" length="5.12" shape="1296.86,597.59 1301.93,598.32"/>
    </edge>
    <edge id=":2081705786_0" function="internal">
        <lane id=":2081705786_0_0" index="0" disallow="tram rail_urban rail rail_electric ship" speed="13.89" length="4.99" shape="1295.85,627.35 1290.91,626.64"/>
    </edge>
    <edge id=":2081705799_0" function="internal">
        <lane id=":2081705799_0_0" index="0" disallow="tram rail_urban rail rail_electric ship" speed="13.89" length="4.87" shape="1276.44,596.35 1281.28,596.88"/>
    </edge>
    <edge id=":2081705836_0" function="internal">
        <lane id=":2081705836_0_0" index="0" disallow="tram rail_urban rail rail_electric ship" speed="13.89" length="5.01" shape="1276.91,624.50 1271.96,623.67"/>
    </edge>
    <edge id=":2096097093_0" function="internal">
        <lane id=":2096097093_0_0" index="0" disallow="tram rail_urban rail rail_electric ship" speed="13.89" length="5.01" shape="1368.23,610.45 1373.16,611.35"/>
    </edge>
    <edge id=":2096097094_0" function="internal">
        <lane id=":2096097094_0_0" index="0" disallow="tram rail_urban rail rail_electric ship" speed="13.89" length="5.00" shape="1399.46,628.35 1398.74,633.30"/>
    </edge>
    <edge id=":2166924255_0" function="internal">
        <lane id=":2166924255_0_0" index="0" disallow="tram rail_urban rail rail_electric ship" speed="9.73" length="5.01" shape="1868.80,712.49 1867.43,712.45 1866.37,712.85 1865.64,713.71 1865.22,715.02"/>
    </edge>
    <edge id=":2166924255_1" function="internal">
        <lane id=":2166924255_1_0" index="0" disallow="tram rail_urban rail rail_electric ship" speed="9.73" length="10.32" shape="1868.80,712.49 1866.10,711.61 1864.32,710.09 1863.46,707.92 1863.52,705.11"/>
    </edge>
    <edge id=":2166924255_2" function="internal">
        <lane id=":2166924255_2_0" index="0" allow="delivery bicycle pedestrian" speed="5.56" length="4.82" shape="1868.80,712.49 1867.73,711.46 1867.47,710.58 1868.02,709.84 1869.38,709.24"/>
    </edge>
    <edge id=":2166924255_3" function="internal">
        <lane id=":2166924255_3_0" index="0" allow="delivery bicycle pedestrian" speed="9.73" length="5.05" shape="1866.77,705.65 1866.75,707.02 1867.17,708.07 1868.05,708.81 1869.38,709.24"/>
    </edge>
    <edge id=":2166924255_4" function="internal">
        <lane id=":2166924255_4_0" index="0" disallow="tram rail_urban rail rail_electric ship" speed="13.89" length="9.50" shape="1866.77,705.65 1865.22,715.02"/>
    </edge>
    <edge id=":2166924255_5" function="internal">
        <lane id=":2166924255_5_0" index="0" disallow="tram rail_urban rail rail_electric ship" speed="13.89" length="2.41" shape="1866.77,705.65 1865.76,706.74 1864.88,707.01"/>
    </edge>
    <edge id=":2166924255_9" function="internal">
        <lane id=":2166924255_9_0" index="0" speed="13.89" length="2.41" shape="1864.88,707.01 1864.13,706.47 1863.52,705.11"/>
    </edge>
    <edge id=":2166924255_6" function="internal">
        <lane id=":2166924255_6_0" index="0" disallow="tram rail_urban rail rail_electric ship" speed="13.89" length="9.50" shape="1861.97,714.49 1863.52,705.11"/>
    </edge>
    <edge id=":2166924255_7" function="internal">
        <lane id=":2166924255_7_0" index="0" allow="delivery bicycle pedestrian" speed="9.73" length="5.19" shape="1861.97,714.49 1862.83,711.77 1864.35,709.99"/>
    </edge>
    <edge id=":2166924255_8" function="internal">
        <lane id=":2166924255_8_0" index="0" disallow="tram rail_urban rail rail_electric ship" speed="13.89" length="2.41" shape="1861.97,714.49 1862.98,713.40 1863.87,713.13"/>
    </edge>
    <edge id=":2166924255_10" function="internal">
        <lane id=":2166924255_10_0" index="0" speed="9.73" length="5.19" shape="1864.35,709.99 1866.53,709.15 1869.38,709.24"/>
    </edge>
    <edge id=":2166924255_11" function="internal">
        <lane id=":2166924255_11_0" index="0" speed="13.89" length="2.41" shape="1863.87,713.13 1864.61,713.67 1865.22,715.02"/>
    </edge>
    <edge id=":2166924256_0" function="internal">
        <lane id=":2166924256_0_0" index="0" allow="delivery bicycle pedestrian" speed="5.56" length="4.82" shape="1874.02,710.06 1875.10,711.09 1875.36,711.98 1874.81,712.72 1873.45,713.31"/>
    </edge>
    <edge id=":2259683600_0" function="internal">
        <lane id=":2259683600_0_0" index="0" disallow="tram rail_urban rail rail_electric ship" speed="13.89" length="4.82" shape="1637.81,681.68 1636.73,680.67 1636.45,679.78 1637.00,679.04 1638.35,678.42"/>
    </edge>
    <edge id=":2259683601_0" function="internal">
        <lane id=":2259683601_0_0" index="0" disallow="tram rail_urban rail rail_electric ship" speed="13.89" length="4.82" shape="1633.08,677.55 1634.17,678.56 1634.44,679.45 1633.90,680.19 1632.54,680.80"/>
    </edge>
    <edge id=":2259683602_0" function="internal">
        <lane id=":2259683602_0_0" index="0" disallow="tram rail_urban rail rail_electric ship" speed="13.89" length="5.00" shape="1626.01,679.72 1621.08,678.91"/>
    </edge>
    <edge id=":2259683602_1" function="internal">
        <lane id=":2259683602_1_0" index="0" disallow="tram rail_urban rail rail_electric ship" speed="13.89" length="2.41" shape="1626.01,679.72 1624.92,678.71 1624.65,677.83"/>
    </edge>
    <edge id=":2259683602_4" function="internal">
        <lane id=":2259683602_4_0" index="0" speed="13.89" length="2.41" shape="1624.65,677.83 1625.19,677.08 1626.55,676.47"/>
    </edge>
    <edge id=":2259683602_2" function="internal">
        <lane id=":2259683602_2_0" index="0" disallow="tram rail_urban rail rail_electric ship" speed="13.89" length="5.00" shape="1621.61,675.65 1626.55,676.47"/>
    </edge>
    <edge id=":2259683602_3" function="internal">
        <lane id=":2259683602_3_0" index="0" disallow="tram rail_urban rail rail_electric ship" speed="13.89" length="2.41" shape="1621.61,675.65 1622.70,676.67 1622.97,677.55"/>
    </edge>
    <edge id=":2259683602_5" function="internal">
        <lane id=":2259683602_5_0" index="0" speed="13.89" length="2.41" shape="1622.97,677.55 1622.43,678.30 1621.08,678.91"/>
    </edge>
    <edge id=":258758536_0" function="internal">
        <lane id=":258758536_0_0" index="0" disallow="tram rail_urban rail rail_electric ship" speed="22.22" length="0.10" shape="804.56,864.83 804.56,864.83"/>
        <lane id=":258758536_0_1" index="1" disallow="tram rail_urban rail rail_electric ship" speed="22.22" length="0.10" shape="805.10,861.58 805.10,861.58"/>
    </edge>
    <edge id=":258758536_2" function="internal">
        <lane id=":258758536_2_0" index="0" disallow="tram rail_urban rail rail_electric ship" speed="22.22" length="2.41" shape="805.10,861.58 804.01,860.56 803.74,859.68"/>
    </edge>
    <edge id=":258758536_5" function="internal">
        <lane id=":258758536_5_0" index="0" speed="22.22" length="2.41" shape="803.74,859.68 804.28,858.93 805.64,858.32"/>
    </edge>
    <edge id=":258758536_3" function="internal">
        <lane id=":258758536_3_0" index="0" disallow="tram rail_urban rail rail_electric ship" speed="22.22" length="0.10" shape="805.64,858.32 805.64,858.32"/>
    </edge>
    <edge id=":258758536_4" function="internal">
        <lane id=":258758536_4_0" index="0" disallow="tram rail_urban rail rail_electric ship" speed="22.22" length="2.41" shape="805.64,858.32 806.72,859.34 807.00,860.22"/>
    </edge>
    <edge id=":258758536_6" function="internal">
        <lane id=":258758536_6_0" index="0" speed="22.22" length="2.41" shape="807.00,860.22 806.45,860.97 805.10,861.58"/>
    </edge>
    <edge id=":258758537_0" function="internal">
        <lane id=":258758537_0_0" index="0" disallow="tram rail_urban rail rail_electric ship" speed="13.89" length="4.82" shape="822.32,758.21 821.24,757.19 820.96,756.31 821.51,755.56 822.86,754.95"/>
    </edge>
    <edge id=":258758538_0" function="internal">
        <lane id=":258758538_0_0" index="0" disallow="tram rail_urban rail rail_electric ship" speed="13.89" length="2.69" shape="845.86,655.87 844.77,654.85 844.50,653.97 844.67,653.74"/>
    </edge>
    <edge id=":258758538_2" function="internal">
        <lane id=":258758538_2_0" index="0" speed="13.89" length="2.13" shape="844.67,653.74 845.04,653.23 846.40,652.62"/>
    </edge>
    <edge id=":258758538_1" function="internal">
        <lane id=":258758538_1_0" index="0" disallow="tram rail_urban rail rail_electric ship" speed="12.53" length="5.00" shape="843.85,649.05 843.82,650.42 844.24,651.47 845.10,652.20 846.40,652.62"/>
    </edge>
    <edge id=":258758539_0" function="internal">
        <lane id=":258758539_0_0" index="0" disallow="tram rail_urban rail rail_electric ship" speed="19.48" length="5.00" shape="862.28,557.30 860.91,557.27 859.86,557.69 859.13,558.55 858.72,559.85"/>
    </edge>
    <edge id=":258758539_1" function="internal">
        <lane id=":258758539_1_0" index="0" disallow="tram rail_urban rail rail_electric ship" speed="27.78" length="13.35" shape="862.28,557.30 858.56,556.16 856.24,554.62 853.92,553.09 850.20,551.94"/>
        <lane id=":258758539_1_1" index="1" disallow="tram rail_urban rail rail_electric ship" speed="27.78" length="13.35" shape="862.83,554.05 859.10,552.91 856.78,551.37 854.46,549.83 850.74,548.69"/>
    </edge>
    <edge id=":258758539_3" function="internal">
        <lane id=":258758539_3_0" index="0" disallow="tram rail_urban rail rail_electric ship" speed="27.78" length="2.41" shape="863.37,550.79 862.28,549.78 862.01,548.90"/>
    </edge>
    <edge id=":258758539_11" function="internal">
        <lane id=":258758539_11_0" index="0" speed="27.78" length="2.41" shape="862.01,548.90 862.56,548.15 863.91,547.54"/>
    </edge>
    <edge id=":258758539_4" function="internal">
        <lane id=":258758539_4_0" index="0" disallow="tram rail_urban rail rail_electric ship" speed="19.48" length="5.00" shape="861.90,540.71 861.87,542.08 862.29,543.14 863.15,543.87 864.45,544.28"/>
    </edge>
    <edge id=":258758539_5" function="internal">
        <lane id=":258758539_5_0" index="0" disallow="tram rail_urban rail rail_electric ship" speed="11.18" length="19.40" shape="861.90,540.71 860.96,546.40 860.31,550.28 859.66,554.17 858.72,559.85"/>
        <lane id=":258758539_5_1" index="1" disallow="tram rail_urban rail rail_electric ship" speed="11.18" length="19.40" shape="858.65,540.17 857.70,545.85 857.05,549.74 856.41,553.63 855.46,559.31"/>
        <lane id=":258758539_5_2" index="2" disallow="tram rail_urban rail rail_electric ship" speed="11.18" length="19.40" shape="855.39,539.63 854.45,545.31 853.80,549.20 853.15,553.09 852.21,558.77"/>
    </edge>
    <edge id=":258758539_8" function="internal">
        <lane id=":258758539_8_0" index="0" disallow="tram rail_urban rail rail_electric ship" speed="27.78" length="12.80" shape="851.83,542.18 855.58,542.80 858.14,543.23 860.71,543.66 864.45,544.28"/>
        <lane id=":258758539_8_1" index="1" disallow="tram rail_urban rail rail_electric ship" speed="27.78" length="12.80" shape="851.28,545.43 855.03,546.06 857.60,546.49 860.16,546.91 863.91,547.54"/>
    </edge>
    <edge id=":258758539_10" function="internal">
        <lane id=":258758539_10_0" index="0" disallow="tram rail_urban rail rail_electric ship" speed="27.78" length="2.68" shape="851.28,545.43 852.37,546.45 852.64,547.33 852.48,547.55"/>
    </edge>
    <edge id=":258758539_12" function="internal">
        <lane id=":258758539_12_0" index="0" speed="27.78" length="2.14" shape="852.48,547.55 852.10,548.08 850.74,548.69"/>
    </edge>
    <edge id=":258758540_0" function="internal">
        <lane id=":258758540_0_0" index="0" disallow="tram rail_urban rail rail_electric ship" speed="12.53" length="5.00" shape="880.47,448.11 879.10,448.08 878.05,448.49 877.32,449.35 876.91,450.66"/>
    </edge>
    <edge id=":258758540_1" function="internal">
        <lane id=":258758540_1_0" index="0" disallow="tram rail_urban rail rail_electric ship" speed="13.89" length="12.80" shape="880.47,448.11 877.11,447.55 874.16,447.06 871.21,446.56 867.85,446.00"/>
    </edge>
    <edge id=":258758540_2" function="internal">
        <lane id=":258758540_2_0" index="0" disallow="tram rail_urban rail rail_electric ship" speed="13.89" length="2.41" shape="880.47,448.11 879.39,447.10 879.12,446.21"/>
    </edge>
    <edge id=":258758540_11" function="internal">
        <lane id=":258758540_11_0" index="0" speed="13.89" length="2.41" shape="879.12,446.21 879.66,445.47 881.02,444.86"/>
    </edge>
    <edge id=":258758540_3" function="internal">
        <lane id=":258758540_3_0" index="0" disallow="tram rail_urban rail rail_electric ship" speed="12.53" length="5.01" shape="878.47,441.28 878.44,442.66 878.85,443.71 879.71,444.44 881.02,444.86"/>
    </edge>
    <edge id=":258758540_4" function="internal">
        <lane id=":258758540_4_0" index="0" disallow="tram rail_urban rail rail_electric ship" speed="11.18" length="9.51" shape="878.47,441.28 876.91,450.66"/>
        <lane id=":258758540_4_1" index="1" disallow="tram rail_urban rail rail_electric ship" speed="11.18" length="9.51" shape="875.21,440.74 873.65,450.12"/>
        <lane id=":258758540_4_2" index="2" disallow="tram rail_urban rail rail_electric ship" speed="11.18" length="9.51" shape="871.96,440.20 870.40,449.58"/>
    </edge>
    <edge id=":258758540_7" function="internal">
        <lane id=":258758540_7_0" index="0" disallow="tram rail_urban rail rail_electric ship" speed="12.53" length="7.85" shape="871.96,440.20 871.31,442.93 870.40,444.81 869.25,445.83 867.85,446.00"/>
    </edge>
    <edge id=":258758540_8" function="internal">
        <lane id=":258758540_8_0" index="0" disallow="tram rail_urban rail rail_electric ship" speed="13.89" length="12.80" shape="868.39,442.75 871.75,443.31 874.70,443.80 877.66,444.30 881.02,444.86"/>
    </edge>
    <edge id=":258758540_9" function="internal">
        <lane id=":258758540_9_0" index="0" disallow="tram rail_urban rail rail_electric ship" speed="12.53" length="3.06" shape="868.39,442.75 869.66,443.37 870.42,444.71 870.43,444.81"/>
    </edge>
    <edge id=":258758540_10" function="internal">
        <lane id=":258758540_10_0" index="0" disallow="tram rail_urban rail rail_electric ship" speed="13.89" length="2.41" shape="868.39,442.75 869.47,443.77 869.75,444.65"/>
    </edge>
    <edge id=":258758540_12" function="internal">
        <lane id=":258758540_12_0" index="0" speed="12.53" length="4.79" shape="870.43,444.81 870.67,446.78 870.40,449.58"/>
    </edge>
    <edge id=":258758540_13" function="internal">
        <lane id=":258758540_13_0" index="0" speed="13.89" length="2.41" shape="869.75,444.65 869.20,445.39 867.85,446.00"/>
    </edge>
    <edge id=":295185114_0" function="internal">
        <lane id=":295185114_0_0" index="0" disallow="tram rail_urban rail rail_electric ship" speed="13.89" length="6.97" shape="1867.46,723.05 1865.89,723.10 1864.65,723.85 1863.73,725.30 1863.15,727.45"/>
    </edge>
    <edge id=":295185114_1" function="internal">
        <lane id=":295185114_1_0" index="0" disallow="tram rail_urban rail rail_electric ship" speed="13.89" length="10.30" shape="1867.46,723.05 1864.47,722.85 1862.34,723.20 1860.20,723.52 1857.22,723.28"/>
    </edge>
    <edge id=":295185114_2" function="internal">
        <lane id=":295185114_2_0" index="0" disallow="tram rail_urban rail rail_electric ship" speed="13.89" length="9.15" shape="1867.46,723.05 1864.56,722.26 1862.60,721.08 1861.56,719.51 1861.46,717.54"/>
    </edge>
    <edge id=":295185114_3" function="internal">
        <lane id=":295185114_3_0" index="0" disallow="tram rail_urban rail rail_electric ship" speed="13.89" length="9.50" shape="1864.72,718.08 1863.15,727.45"/>
    </edge>
    <edge id=":295185114_4" function="internal">
        <lane id=":295185114_4_0" index="0" disallow="tram rail_urban rail rail_electric ship" speed="13.89" length="5.22" shape="1864.72,718.08 1863.84,720.82 1862.30,722.60"/>
    </edge>
    <edge id=":295185114_5" function="internal">
        <lane id=":295185114_5_0" index="0" disallow="tram rail_urban rail rail_electric ship" speed="13.89" length="2.41" shape="1864.72,718.08 1863.70,719.17 1862.82,719.44"/>
    </edge>
    <edge id=":295185114_12" function="internal">
        <lane id=":295185114_12_0" index="0" speed="13.89" length="5.23" shape="1862.30,722.60 1860.10,723.42 1857.22,723.28"/>
    </edge>
    <edge id=":295185114_13" function="internal">
        <lane id=":295185114_13_0" index="0" speed="13.89" length="2.41" shape="1862.82,719.44 1862.07,718.90 1861.46,717.54"/>
    </edge>
    <edge id=":295185114_6" function="internal">
        <lane id=":295185114_6_0" index="0" disallow="tram rail_urban rail rail_electric ship" speed="13.89" length="5.03" shape="1857.86,720.04 1859.24,720.11 1860.30,719.71 1861.04,718.86 1861.46,717.54"/>
    </edge>
    <edge id=":295185114_7" function="internal">
        <lane id=":295185114_7_0" index="0" disallow="tram rail_urban rail rail_electric ship" speed="13.89" length="10.33" shape="1857.86,720.04 1860.56,720.96 1862.34,722.50 1863.21,724.67 1863.15,727.45"/>
    </edge>
    <edge id=":295185114_8" function="internal">
        <lane id=":295185114_8_0" index="0" disallow="tram rail_urban rail rail_electric ship" speed="13.89" length="4.82" shape="1857.86,720.04 1858.91,721.09 1859.16,721.98 1858.60,722.71 1857.22,723.28"/>
    </edge>
    <edge id=":295185114_9" function="internal">
        <lane id=":295185114_9_0" index="0" disallow="tram rail_urban rail rail_electric ship" speed="13.89" length="5.11" shape="1859.89,726.91 1859.92,725.55 1859.48,724.49 1858.58,723.74 1857.22,723.28"/>
    </edge>
    <edge id=":295185114_10" function="internal">
        <lane id=":295185114_10_0" index="0" disallow="tram rail_urban rail rail_electric ship" speed="13.89" length="9.50" shape="1859.89,726.91 1861.46,717.54"/>
    </edge>
    <edge id=":295185114_11" function="internal">
        <lane id=":295185114_11_0" index="0" disallow="tram rail_urban rail rail_electric ship" speed="13.89" length="2.41" shape="1859.89,726.91 1860.91,725.83 1861.79,725.55"/>
    </edge>
    <edge id=":295185114_14" function="internal">
        <lane id=":295185114_14_0" index="0" speed="13.89" length="2.41" shape="1861.79,725.55 1862.54,726.10 1863.15,727.45"/>
    </edge>
    <edge id=":295185200_0" function="internal">
        <lane id=":295185200_0_0" index="0" disallow="tram rail_urban rail rail_electric ship" speed="13.89" length="6.48" shape="1869.67,687.84 1869.54,689.94 1869.89,691.52 1870.72,692.59 1872.02,693.13"/>
    </edge>
    <edge id=":295185200_1" function="internal">
        <lane id=":295185200_1_0" index="0" disallow="tram rail_urban rail rail_electric ship" speed="13.89" length="9.55" shape="1869.67,687.84 1868.16,697.27"/>
    </edge>
    <edge id=":295185200_2" function="internal">
        <lane id=":295185200_2_0" index="0" disallow="tram rail_urban rail rail_electric ship" speed="13.89" length="5.28" shape="1869.67,687.84 1868.84,690.53 1867.34,692.32 1867.22,692.37"/>
    </edge>
    <edge id=":295185200_3" function="internal">
        <lane id=":295185200_3_0" index="0" disallow="tram rail_urban rail rail_electric ship" speed="13.89" length="2.41" shape="1869.67,687.84 1868.66,688.94 1867.78,689.22"/>
    </edge>
    <edge id=":295185200_12" function="internal">
        <lane id=":295185200_12_0" index="0" speed="13.89" length="5.07" shape="1867.22,692.37 1865.16,693.21 1862.31,693.19"/>
    </edge>
    <edge id=":295185200_13" function="internal">
        <lane id=":295185200_13_0" index="0" speed="13.89" length="2.41" shape="1867.78,689.22 1867.03,688.69 1866.41,687.34"/>
    </edge>
    <edge id=":295185200_4" function="internal">
        <lane id=":295185200_4_0" index="0" disallow="tram rail_urban rail rail_electric ship" speed="13.89" length="5.07" shape="1862.78,689.93 1864.19,689.94 1865.26,689.51 1866.00,688.64 1866.41,687.34"/>
    </edge>
    <edge id=":295185200_5" function="internal">
        <lane id=":295185200_5_0" index="0" disallow="tram rail_urban rail rail_electric ship" speed="13.89" length="9.78" shape="1862.78,689.93 1872.02,693.13"/>
    </edge>
    <edge id=":295185200_6" function="internal">