<?xml version="1.0" encoding="UTF-8"?>

<routes xmlns:xsi="http://www.w3.org/2001/XMLSchema-instance" xsi:noNamespaceSchemaLocation="http://sumo.dlr.de/xsd/routes_file.xsd">
        <vType accel="1.0" decel="5.0" id="Car" length="3.5" maxSpeed="17.77" sigma="0.0" />    

        <route id="RCLTEntranceExit" edges="-27050852 26938354 85644944 87297166 26938250 8921173 -87376660#2 -87376660#1 -87376660#0 -87376695 -87376682"/>

        <route id="RCLTExitEntrance" edges="87376682 87376695 87376660#0 87376660#1 87376660#2 26938247 133376103 8921175 26938401 87297169 85644934 27050852"/>

        <flow id="flowEntranceExit" departLane="0" route="RCLTEntranceExit" begin="0.0" end="771360.0" vehsPerHour="60" departSpeed="max" />

        <flow id="flowExitEntrance" departLane="0" route="RCLTExitEntrance" begin="0.0" end="771360.0" vehsPerHour="60" departSpeed="max" />
</routes>
