<?xml version="1.0" encoding="UTF-8"?>

<!-- generated on Sat May 14 11:42:14 2016 by SUMO netconvert Version 0.25.0
<?xml version="1.0" encoding="UTF-8"?>

<configuration xmlns:xsi="http://www.w3.org/2001/XMLSchema-instance" xsi:noNamespaceSchemaLocation="http://sumo.dlr.de/xsd/netconvertConfiguration.xsd">

    <input>
        <type-files value="/local1/liborio/VehicularNetworking/workspace/sumo-0.25.0/data/typemap/osmNetconvert.typ.xml"/>
        <osm-files value="SFYBT-road-only.osm"/>
    </input>

    <output>
        <output-file value="net.net.xml"/>
    </output>

    <projection>
        <proj.utm value="true"/>
    </projection>

</configuration>
-->

<net version="0.25" xmlns:xsi="http://www.w3.org/2001/XMLSchema-instance" xsi:noNamespaceSchemaLocation="http://sumo.dlr.de/xsd/net_file.xsd">

    <location netOffset="-553580.25,-4182189.25" convBoundary="0.00,0.00,5585.95,4109.36" origBoundary="-122.391499,37.785488,-122.327732,37.822180" projParameter="+proj=utm +zone=10 +ellps=WGS84 +datum=WGS84 +units=m +no_defs"/>

    <type id="highway.bridleway" priority="1" numLanes="1" speed="2.78" allow="pedestrian" oneway="1" width="2.00"/>
    <type id="highway.bus_guideway" priority="1" numLanes="1" speed="8.33" allow="bus" oneway="1"/>
    <type id="highway.cycleway" priority="1" numLanes="1" speed="5.56" allow="bicycle" oneway="0" width="1.00"/>
    <type id="highway.footway" priority="1" numLanes="1" speed="8.33" allow="pedestrian" oneway="1" width="2.00"/>
    <type id="highway.ford" priority="1" numLanes="1" speed="2.78" allow="army" oneway="0"/>
    <type id="highway.living_street" priority="3" numLanes="1" speed="2.78" disallow="tram rail_urban rail rail_electric ship" oneway="0"/>
    <type id="highway.motorway" priority="13" numLanes="2" speed="44.44" allow="private emergency authority army vip passenger hov taxi bus coach delivery truck trailer motorcycle evehicle custom1 custom2" oneway="1"/>
    <type id="highway.motorway_link" priority="12" numLanes="1" speed="22.22" allow="private emergency authority army vip passenger hov taxi bus coach delivery truck trailer motorcycle evehicle custom1 custom2" oneway="1"/>
    <type id="highway.path" priority="1" numLanes="1" speed="2.78" allow="bicycle pedestrian" oneway="1" width="2.00"/>
    <type id="highway.pedestrian" priority="1" numLanes="1" speed="8.33" allow="pedestrian" oneway="1" width="2.00"/>
    <type id="highway.primary" priority="9" numLanes="2" speed="27.78" disallow="tram rail_urban rail rail_electric ship" oneway="0"/>
    <type id="highway.primary_link" priority="8" numLanes="1" speed="22.22" disallow="tram rail_urban rail rail_electric ship" oneway="0"/>
    <type id="highway.raceway" priority="14" numLanes="2" speed="83.33" allow="vip" oneway="0"/>
    <type id="highway.residential" priority="4" numLanes="1" speed="13.89" disallow="tram rail_urban rail rail_electric ship" oneway="0"/>
    <type id="highway.secondary" priority="7" numLanes="2" speed="27.78" disallow="tram rail_urban rail rail_electric ship" oneway="0"/>
    <type id="highway.secondary_link" priority="6" numLanes="1" speed="22.22" disallow="tram rail_urban rail rail_electric ship" oneway="0"/>
    <type id="highway.service" priority="2" numLanes="1" speed="5.56" allow="delivery bicycle pedestrian" oneway="0"/>
    <type id="highway.services" priority="1" numLanes="1" speed="8.33" disallow="tram rail_urban rail rail_electric ship" oneway="0"/>
    <type id="highway.stairs" priority="1" numLanes="1" speed="1.39" allow="pedestrian" oneway="1" width="2.00"/>
    <type id="highway.step" priority="1" numLanes="1" speed="1.39" allow="pedestrian" oneway="1" width="2.00"/>
    <type id="highway.steps" priority="1" numLanes="1" speed="1.39" allow="pedestrian" oneway="1" width="2.00"/>
    <type id="highway.tertiary" priority="6" numLanes="1" speed="22.22" disallow="tram rail_urban rail rail_electric ship" oneway="0"/>
    <type id="highway.tertiary_link" priority="5" numLanes="1" speed="22.22" disallow="tram rail_urban rail rail_electric ship" oneway="0"/>
    <type id="highway.track" priority="1" numLanes="1" speed="5.56" disallow="tram rail_urban rail rail_electric ship" oneway="0"/>
    <type id="highway.trunk" priority="11" numLanes="2" speed="27.78" disallow="tram rail_urban rail rail_electric bicycle pedestrian ship" oneway="0"/>
    <type id="highway.trunk_link" priority="10" numLanes="1" speed="22.22" disallow="tram rail_urban rail rail_electric bicycle pedestrian ship" oneway="0"/>
    <type id="highway.unclassified" priority="5" numLanes="1" speed="13.89" disallow="tram rail_urban rail rail_electric ship" oneway="0"/>
    <type id="highway.unsurfaced" priority="1" numLanes="1" speed="8.33" disallow="tram rail_urban rail rail_electric ship" oneway="0"/>
    <type id="railway.light_rail" priority="15" numLanes="1" speed="27.78" allow="rail_urban" oneway="1"/>
    <type id="railway.preserved" priority="15" numLanes="1" speed="27.78" allow="rail" oneway="1"/>
    <type id="railway.rail" priority="15" numLanes="1" speed="83.33" allow="rail rail_electric" oneway="1"/>
    <type id="railway.subway" priority="15" numLanes="1" speed="27.78" allow="rail_urban" oneway="1"/>
    <type id="railway.tram" priority="15" numLanes="1" speed="13.89" allow="tram" oneway="1"/>

    <edge id=":101634057_0" function="internal">
        <lane id=":101634057_0_0" index="0" allow="private emergency authority army vip passenger hov taxi bus coach delivery truck trailer motorcycle evehicle custom1 custom2" speed="22.35" length="0.17" shape="2193.70,2625.96 2193.52,2625.74"/>
        <lane id=":101634057_0_1" index="1" allow="private emergency authority army vip passenger hov taxi bus coach delivery truck trailer motorcycle evehicle custom1 custom2" speed="22.35" length="0.17" shape="2196.18,2623.78 2196.07,2623.65"/>
        <lane id=":101634057_0_2" index="2" allow="private emergency authority army vip passenger hov taxi bus coach delivery truck trailer motorcycle evehicle custom1 custom2" speed="22.35" length="0.17" shape="2198.64,2621.58 2198.64,2621.58"/>
        <lane id=":101634057_0_3" index="3" allow="private emergency authority army vip passenger hov taxi bus coach delivery truck trailer motorcycle evehicle custom1 custom2" speed="22.35" length="0.17" shape="2201.18,2619.46 2201.14,2619.42"/>
        <lane id=":101634057_0_4" index="4" allow="private emergency authority army vip passenger hov taxi bus coach delivery truck trailer motorcycle evehicle custom1 custom2" speed="22.35" length="0.17" shape="2203.73,2617.37 2203.62,2617.24"/>
    </edge>
    <edge id=":101634074_0" function="internal">
        <lane id=":101634074_0_0" index="0" disallow="tram rail_urban rail rail_electric ship" speed="22.22" length="0.12" shape="2091.83,2624.88 2091.94,2624.91"/>
    </edge>
    <edge id=":101634074_1" function="internal">
        <lane id=":101634074_1_0" index="0" disallow="tram rail_urban rail rail_electric ship" speed="22.22" length="2.41" shape="2091.83,2624.88 2090.90,2623.71 2090.77,2622.80"/>
    </edge>
    <edge id=":101634074_4" function="internal">
        <lane id=":101634074_4_0" index="0" speed="22.22" length="2.41" shape="2090.77,2622.80 2091.41,2622.14 2092.84,2621.74"/>
    </edge>
    <edge id=":101634074_2" function="internal">
        <lane id=":101634074_2_0" index="0" disallow="tram rail_urban rail rail_electric ship" speed="22.22" length="0.10" shape="2092.93,2621.77 2092.84,2621.74"/>
    </edge>
    <edge id=":101634074_3" function="internal">
        <lane id=":101634074_3_0" index="0" disallow="tram rail_urban rail rail_electric ship" speed="22.22" length="2.40" shape="2092.93,2621.77 2093.86,2622.93 2094.00,2623.84"/>
    </edge>
    <edge id=":101634074_5" function="internal">
        <lane id=":101634074_5_0" index="0" speed="22.22" length="2.40" shape="2094.00,2623.84 2093.36,2624.50 2091.94,2624.91"/>
    </edge>
    <edge id=":101643699_0" function="internal">
        <lane id=":101643699_0_0" index="0" allow="private emergency authority army vip passenger hov taxi bus coach delivery truck trailer motorcycle evehicle custom1 custom2" speed="22.35" length="0.11" shape="2304.73,2761.36 2304.66,2761.28"/>
        <lane id=":101643699_0_1" index="1" allow="private emergency authority army vip passenger hov taxi bus coach delivery truck trailer motorcycle evehicle custom1 custom2" speed="22.35" length="0.11" shape="2307.24,2759.22 2307.21,2759.19"/>
        <lane id=":101643699_0_2" index="2" allow="private emergency authority army vip passenger hov taxi bus coach delivery truck trailer motorcycle evehicle custom1 custom2" speed="22.35" length="0.11" shape="2309.76,2757.09 2309.76,2757.09"/>
        <lane id=":101643699_0_3" index="3" allow="private emergency authority army vip passenger hov taxi bus coach delivery truck trailer motorcycle evehicle custom1 custom2" speed="22.35" length="0.11" shape="2312.27,2754.95 2312.31,2755.00"/>
        <lane id=":101643699_0_4" index="4" allow="private emergency authority army vip passenger hov taxi bus coach delivery truck trailer motorcycle evehicle custom1 custom2" speed="22.35" length="0.11" shape="2314.87,2752.91 2314.77,2752.80"/>
    </edge>
    <edge id=":1449955840_0" function="internal">
        <lane id=":1449955840_0_0" index="0" disallow="tram rail_urban rail rail_electric ship" speed="13.89" length="4.82" shape="2377.57,2788.73 2376.83,2787.44 2376.83,2786.52 2377.56,2785.97 2379.04,2785.78"/>
    </edge>
    <edge id=":1449969015_0" function="internal">
        <lane id=":1449969015_0_0" index="0" disallow="tram rail_urban rail rail_electric ship" speed="22.22" length="4.82" shape="2413.30,2917.74 2411.89,2918.21 2410.98,2918.03 2410.59,2917.19 2410.70,2915.71"/>
    </edge>
    <edge id=":1450073796_0" function="internal">
        <lane id=":1450073796_0_0" index="0" disallow="tram rail_urban rail rail_electric ship" speed="13.89" length="6.77" shape="2433.19,3075.04 2434.18,3068.34"/>
    </edge>
    <edge id=":1450073796_1" function="internal">
        <lane id=":1450073796_1_0" index="0" disallow="tram rail_urban rail rail_electric ship" speed="13.89" length="2.72" shape="2433.19,3075.04 2433.99,3073.78 2434.80,3073.35 2435.09,3073.48"/>
    </edge>
    <edge id=":1450073796_4" function="internal">
        <lane id=":1450073796_4_0" index="0" speed="13.89" length="2.10" shape="2435.09,3073.48 2435.64,3073.74 2436.49,3074.96"/>
    </edge>
    <edge id=":1450073796_2" function="internal">
        <lane id=":1450073796_2_0" index="0" disallow="tram rail_urban rail rail_electric ship" speed="13.89" length="5.56" shape="2437.28,3069.46 2436.49,3074.96"/>
    </edge>
    <edge id=":1450073796_3" function="internal">
        <lane id=":1450073796_3_0" index="0" disallow="tram rail_urban rail rail_electric ship" speed="13.89" length="2.08" shape="2437.28,3069.46 2436.08,3070.35 2435.49,3070.41"/>
    </edge>
    <edge id=":1450073796_5" function="internal">
        <lane id=":1450073796_5_0" index="0" speed="13.89" length="2.74" shape="2435.49,3070.41 2435.16,3070.45 2434.53,3069.78 2434.18,3068.34"/>
    </edge>
    <edge id=":1450093384_0" function="internal">
        <lane id=":1450093384_0_0" index="0" disallow="tram rail_urban rail rail_electric ship" speed="13.89" length="4.82" shape="2547.48,3111.91 2548.10,3110.56 2548.84,3110.02 2549.72,3110.29 2550.74,3111.38"/>
    </edge>
    <edge id=":1450215258_0" function="internal">
        <lane id=":1450215258_0_0" index="0" disallow="tram rail_urban rail rail_electric ship" speed="5.56" length="4.82" shape="2386.15,2706.23 2385.13,2707.31 2384.24,2707.57 2383.50,2707.02 2382.90,2705.66"/>
    </edge>
    <edge id=":1450217069_0" function="internal">
        <lane id=":1450217069_0_0" index="0" allow="delivery bicycle pedestrian" speed="5.56" length="4.82" shape="2428.03,2591.23 2427.78,2589.76 2428.10,2588.89 2428.98,2588.63 2430.43,2588.96"/>
    </edge>
    <edge id=":1450217078_0" function="internal">
        <lane id=":1450217078_0_0" index="0" allow="delivery bicycle pedestrian" speed="5.56" length="4.82" shape="2457.77,2648.49 2457.03,2649.78 2456.23,2650.25 2455.38,2649.89 2454.48,2648.72"/>
    </edge>
    <edge id=":1461951997_0" function="internal">
        <lane id=":1461951997_0_0" index="0" disallow="tram rail_urban rail rail_electric ship" speed="13.89" length="4.82" shape="2823.20,3182.41 2823.10,3183.89 2822.58,3184.66 2821.66,3184.71 2820.33,3184.04"/>
    </edge>
    <edge id=":1461951998_0" function="internal">
        <lane id=":1461951998_0_0" index="0" disallow="tram rail_urban rail rail_electric ship" speed="13.89" length="8.24" shape="2561.92,3143.38 2556.50,3149.59"/>
    </edge>
    <edge id=":1461951998_1" function="internal">
        <lane id=":1461951998_1_0" index="0" disallow="tram rail_urban rail rail_electric ship" speed="13.89" length="15.32" shape="2561.92,3143.38 2558.37,3146.58 2555.56,3147.19 2553.49,3145.20 2552.16,3140.60"/>
    </edge>
    <edge id=":1461951998_2" function="internal">
        <lane id=":1461951998_2_0" index="0" disallow="tram rail_urban rail rail_electric ship" speed="13.89" length="4.82" shape="2561.92,3143.38 2560.48,3143.77 2559.59,3143.54 2559.24,3142.69 2559.43,3141.21"/>
    </edge>
    <edge id=":1461951998_3" function="internal">
        <lane id=":1461951998_3_0" index="0" disallow="tram rail_urban rail rail_electric ship" speed="13.89" length="6.30" shape="2555.41,3140.07 2555.96,3141.96 2556.81,3142.78 2557.97,3142.53 2559.43,3141.21"/>
    </edge>
    <edge id=":1461951998_4" function="internal">
        <lane id=":1461951998_4_0" index="0" disallow="tram rail_urban rail rail_electric ship" speed="13.89" length="9.60" shape="2555.41,3140.07 2556.03,3144.05 2556.42,3146.96 2556.58,3148.81 2556.50,3149.59"/>
    </edge>
    <edge id=":1461951998_5" function="internal">
        <lane id=":1461951998_5_0" index="0" disallow="tram rail_urban rail rail_electric ship" speed="13.89" length="4.82" shape="2555.41,3140.07 2554.80,3141.42 2554.05,3141.96 2553.17,3141.69 2552.16,3140.60"/>
    </edge>
    <edge id=":1461951998_6" function="internal">
        <lane id=":1461951998_6_0" index="0" disallow="tram rail_urban rail rail_electric ship" speed="13.89" length="9.32" shape="2552.18,3149.80 2552.64,3148.63 2552.78,3146.71 2552.62,3144.03 2552.16,3140.60"/>
    </edge>
    <edge id=":1461951998_7" function="internal">
        <lane id=":1461951998_7_0" index="0" disallow="tram rail_urban rail rail_electric ship" speed="13.89" length="11.24" shape="2552.18,3149.80 2554.14,3147.31 2555.72,3145.43 2557.34,3143.59 2559.43,3141.21"/>
    </edge>
    <edge id=":1461951998_8" function="internal">
        <lane id=":1461951998_8_0" index="0" disallow="tram rail_urban rail rail_electric ship" speed="13.89" length="6.32" shape="2552.18,3149.80 2553.19,3148.12 2554.24,3147.53 2555.35,3148.02 2556.50,3149.59"/>
    </edge>
    <edge id=":1636835245_0" function="internal">
        <lane id=":1636835245_0_0" index="0" disallow="tram rail_urban rail rail_electric ship" speed="22.22" length="1.40" shape="2453.43,2857.07 2452.96,2858.39"/>
    </edge>
    <edge id=":1636835245_1" function="internal">
        <lane id=":1636835245_1_0" index="0" disallow="tram rail_urban rail rail_electric ship" speed="22.22" length="2.41" shape="2453.43,2857.07 2452.38,2858.12 2451.49,2858.36"/>
    </edge>
    <edge id=":1636835245_4" function="internal">
        <lane id=":1636835245_4_0" index="0" speed="22.22" length="2.41" shape="2451.49,2858.36 2450.76,2857.79 2450.19,2856.42"/>
    </edge>
    <edge id=":1636835245_2" function="internal">
        <lane id=":1636835245_2_0" index="0" disallow="tram rail_urban rail rail_electric ship" speed="22.22" length="0.46" shape="2450.04,2856.85 2450.19,2856.42"/>
    </edge>
    <edge id=":1636835245_3" function="internal">
        <lane id=":1636835245_3_0" index="0" disallow="tram rail_urban rail rail_electric ship" speed="22.22" length="2.41" shape="2450.04,2856.85 2451.34,2856.14 2452.27,2856.16"/>
    </edge>
    <edge id=":1636835245_5" function="internal">
        <lane id=":1636835245_5_0" index="0" speed="22.22" length="2.41" shape="2452.27,2856.16 2452.81,2856.91 2452.96,2858.39"/>
    </edge>
    <edge id=":1792813400_0" function="internal">
        <lane id=":1792813400_0_0" index="0" allow="private emergency authority army vip passenger hov taxi bus coach delivery truck trailer motorcycle evehicle custom1 custom2" speed="22.35" length="0.17" shape="2604.59,3070.11 2604.82,3070.32"/>
        <lane id=":1792813400_0_1" index="1" allow="private emergency authority army vip passenger hov taxi bus coach delivery truck trailer motorcycle evehicle custom1 custom2" speed="22.35" length="0.17" shape="2602.38,3072.56 2602.51,3072.69"/>
        <lane id=":1792813400_0_2" index="2" allow="private emergency authority army vip passenger hov taxi bus coach delivery truck trailer motorcycle evehicle custom1 custom2" speed="22.35" length="0.17" shape="2600.18,3075.03 2600.18,3075.03"/>
        <lane id=":1792813400_0_3" index="3" allow="private emergency authority army vip passenger hov taxi bus coach delivery truck trailer motorcycle evehicle custom1 custom2" speed="22.35" length="0.17" shape="2597.91,3077.42 2597.95,3077.46"/>
        <lane id=":1792813400_0_4" index="4" allow="private emergency authority army vip passenger hov taxi bus coach delivery truck trailer motorcycle evehicle custom1 custom2" speed="22.35" length="0.17" shape="2595.60,3079.79 2595.73,3079.91"/>
    </edge>
    <edge id=":1895821104_0" function="internal">
        <lane id=":1895821104_0_0" index="0" allow="private emergency authority army vip passenger hov taxi bus coach delivery truck trailer motorcycle evehicle custom1 custom2" speed="22.35" length="1.33" shape="2106.16,2486.42 2107.55,2488.38"/>
        <lane id=":1895821104_0_1" index="1" allow="private emergency authority army vip passenger hov taxi bus coach delivery truck trailer motorcycle evehicle custom1 custom2" speed="22.35" length="1.33" shape="2103.63,2488.54 2104.71,2490.06"/>
        <lane id=":1895821104_0_2" index="2" allow="private emergency authority army vip passenger hov taxi bus coach delivery truck trailer motorcycle evehicle custom1 custom2" speed="22.35" length="1.33" shape="2101.10,2490.66 2101.87,2491.74"/>
        <lane id=":1895821104_0_3" index="3" allow="private emergency authority army vip passenger hov taxi bus coach delivery truck trailer motorcycle evehicle custom1 custom2" speed="22.35" length="1.33" shape="2098.57,2492.78 2099.03,2493.43"/>
        <lane id=":1895821104_0_4" index="4" allow="private emergency authority army vip passenger hov taxi bus coach delivery truck trailer motorcycle evehicle custom1 custom2" speed="22.35" length="1.33" shape="2096.04,2494.90 2096.19,2495.11"/>
    </edge>
    <edge id=":2085325008_0" function="internal">
        <lane id=":2085325008_0_0" index="0" disallow="tram rail_urban rail rail_electric ship" speed="13.89" length="10.09" shape="2203.11,2672.57 2200.18,2673.19 2198.16,2673.61 2196.18,2674.16 2193.36,2675.13"/>
    </edge>
    <edge id=":2085325008_1" function="internal">
        <lane id=":2085325008_1_0" index="0" disallow="tram rail_urban rail rail_electric ship" speed="9.73" length="6.12" shape="2203.11,2672.57 2198.96,2672.93 2197.17,2672.13"/>
    </edge>
    <edge id=":2085325008_2" function="internal">
        <lane id=":2085325008_2_0" index="0" disallow="tram rail_urban rail rail_electric ship" speed="13.89" length="2.41" shape="2203.11,2672.57 2201.72,2672.03 2201.14,2671.32"/>
    </edge>
    <edge id=":2085325008_9" function="internal">
        <lane id=":2085325008_9_0" index="0" speed="9.73" length="7.67" shape="2197.17,2672.13 2196.46,2671.81 2195.62,2669.21 2196.41,2665.13"/>
    </edge>
    <edge id=":2085325008_10" function="internal">
        <lane id=":2085325008_10_0" index="0" speed="13.89" length="2.41" shape="2201.14,2671.32 2201.36,2670.42 2202.39,2669.35"/>
    </edge>
    <edge id=":2085325008_3" function="internal">
        <lane id=":2085325008_3_0" index="0" disallow="tram rail_urban rail rail_electric ship" speed="9.73" length="5.87" shape="2199.54,2666.18 2199.20,2667.92 2199.56,2669.03 2200.63,2669.50 2202.39,2669.35"/>
    </edge>
    <edge id=":2085325008_4" function="internal">
        <lane id=":2085325008_4_0" index="0" disallow="tram rail_urban rail rail_electric ship" speed="9.73" length="11.18" shape="2199.54,2666.18 2198.19,2669.60 2196.71,2672.23 2195.10,2674.08 2193.36,2675.13"/>
    </edge>
    <edge id=":2085325008_5" function="internal">
        <lane id=":2085325008_5_0" index="0" disallow="tram rail_urban rail rail_electric ship" speed="5.56" length="4.82" shape="2199.54,2666.18 2198.36,2667.09 2197.45,2667.22 2196.80,2666.56 2196.41,2665.13"/>
    </edge>
    <edge id=":2085325008_6" function="internal">
        <lane id=":2085325008_6_0" index="0" disallow="tram rail_urban rail rail_electric ship" speed="9.73" length="8.26" shape="2192.22,2672.04 2193.28,2671.31 2194.34,2669.92 2195.38,2667.86 2196.41,2665.13"/>
    </edge>
    <edge id=":2085325008_7" function="internal">
        <lane id=":2085325008_7_0" index="0" disallow="tram rail_urban rail rail_electric ship" speed="13.89" length="10.53" shape="2192.22,2672.04 2195.11,2671.04 2197.24,2670.45 2199.40,2669.98 2202.39,2669.35"/>
    </edge>
    <edge id=":2085325008_8" function="internal">
        <lane id=":2085325008_8_0" index="0" disallow="tram rail_urban rail rail_electric ship" speed="13.89" length="2.41" shape="2192.22,2672.04 2193.67,2672.38 2194.34,2673.02"/>
    </edge>
    <edge id=":2085325008_11" function="internal">
        <lane id=":2085325008_11_0" index="0" speed="13.89" length="2.41" shape="2194.34,2673.02 2194.24,2673.93 2193.36,2675.13"/>
    </edge>
    <edge id=":2443808077_0" function="internal">
        <lane id=":2443808077_0_0" index="0" allow="private emergency authority army vip passenger hov taxi bus coach delivery truck trailer motorcycle evehicle custom1 custom2" speed="22.35" length="0.17" shape="2698.29,3223.70 2698.15,3223.59"/>
        <lane id=":2443808077_0_1" index="1" allow="private emergency authority army vip passenger hov taxi bus coach delivery truck trailer motorcycle evehicle custom1 custom2" speed="22.35" length="0.17" shape="2700.24,3221.03 2700.19,3221.00"/>
        <lane id=":2443808077_0_2" index="2" allow="private emergency authority army vip passenger hov taxi bus coach delivery truck trailer motorcycle evehicle custom1 custom2" speed="22.35" length="0.17" shape="2702.21,3218.39 2702.21,3218.39"/>
        <lane id=":2443808077_0_3" index="3" allow="private emergency authority army vip passenger hov taxi bus coach delivery truck trailer motorcycle evehicle custom1 custom2" speed="22.35" length="0.17" shape="2704.28,3215.81 2704.13,3215.70"/>
        <lane id=":2443808077_0_4" index="4" allow="private emergency authority army vip passenger hov taxi bus coach delivery truck trailer motorcycle evehicle custom1 custom2" speed="22.35" length="0.17" shape="2706.33,3213.22 2706.08,3213.03"/>
    </edge>
    <edge id=":2443808081_0" function="internal">
        <lane id=":2443808081_0_0" index="0" allow="private emergency authority army vip passenger hov taxi bus coach delivery truck trailer motorcycle evehicle custom1 custom2" speed="22.35" length="4.18" shape="2384.18,2850.73 2379.99,2850.47"/>
        <lane id=":2443808081_0_1" index="1" allow="private emergency authority army vip passenger hov taxi bus coach delivery truck trailer motorcycle evehicle custom1 custom2" speed="22.35" length="4.18" shape="2386.84,2848.78 2382.54,2848.38"/>
        <lane id=":2443808081_0_2" index="2" allow="private emergency authority army vip passenger hov taxi bus coach delivery truck trailer motorcycle evehicle custom1 custom2" speed="22.35" length="4.18" shape="2389.50,2846.83 2385.10,2846.29"/>
        <lane id=":2443808081_0_3" index="3" allow="private emergency authority army vip passenger hov taxi bus coach delivery truck trailer motorcycle evehicle custom1 custom2" speed="22.35" length="4.18" shape="2392.16,2844.88 2387.65,2844.20"/>
        <lane id=":2443808081_0_4" index="4" allow="private emergency authority army vip passenger hov taxi bus coach delivery truck trailer motorcycle evehicle custom1 custom2" speed="22.35" length="4.18" shape="2392.16,2844.88 2390.21,2842.11"/>
    </edge>
    <edge id=":2443808081_5" function="internal">
        <lane id=":2443808081_5_0" index="0" allow="private emergency authority army vip passenger hov taxi bus coach delivery truck trailer motorcycle evehicle custom1 custom2" speed="22.29" length="3.30" shape="2394.83,2842.93 2393.04,2840.16"/>
    </edge>
    <edge id=":2443845209_0" function="internal">
        <lane id=":2443845209_0_0" index="0" allow="private emergency authority army vip passenger hov taxi bus coach delivery truck trailer motorcycle evehicle custom1 custom2" speed="22.35" length="0.10" shape="2318.66,2777.69 2318.66,2777.69"/>
        <lane id=":2443845209_0_1" index="1" allow="private emergency authority army vip passenger hov taxi bus coach delivery truck trailer motorcycle evehicle custom1 custom2" speed="22.35" length="0.10" shape="2321.17,2775.55 2321.17,2775.55"/>
        <lane id=":2443845209_0_2" index="2" allow="private emergency authority army vip passenger hov taxi bus coach delivery truck trailer motorcycle evehicle custom1 custom2" speed="22.35" length="0.10" shape="2323.68,2773.40 2323.68,2773.40"/>
        <lane id=":2443845209_0_3" index="3" allow="private emergency authority army vip passenger hov taxi bus coach delivery truck trailer motorcycle evehicle custom1 custom2" speed="22.35" length="0.10" shape="2326.19,2771.26 2326.19,2771.26"/>
        <lane id=":2443845209_0_4" index="4" allow="private emergency authority army vip passenger hov taxi bus coach delivery truck trailer motorcycle evehicle custom1 custom2" speed="22.35" length="0.10" shape="2328.70,2769.12 2328.70,2769.12"/>
    </edge>
    <edge id=":2444846595_0" function="internal">
        <lane id=":2444846595_0_0" index="0" allow="private emergency authority army vip passenger hov taxi bus coach delivery truck trailer motorcycle evehicle custom1 custom2" speed="22.22" length="3.25" shape="2438.62,2822.67 2435.87,2824.40"/>
    </edge>
    <edge id=":2444846595_1" function="internal">
        <lane id=":2444846595_1_0" index="0" disallow="tram rail_urban rail rail_electric ship" speed="22.22" length="4.82" shape="2438.62,2822.67 2437.30,2823.35 2436.38,2823.31 2435.86,2822.55 2435.73,2821.07"/>
    </edge>
    <edge id=":2447255566_0" function="internal">
        <lane id=":2447255566_0_0" index="0" allow="private emergency authority army vip passenger hov taxi bus coach delivery truck trailer motorcycle evehicle custom1 custom2" speed="22.22" length="0.10" shape="2433.62,2853.45 2433.62,2853.45"/>
    </edge>
    <edge id=":2447255569_0" function="internal">
        <lane id=":2447255569_0_0" index="0" allow="private emergency authority army vip passenger hov taxi bus coach delivery truck trailer motorcycle evehicle custom1 custom2" speed="22.29" length="8.67" shape="2441.34,2884.94 2444.21,2892.30"/>
        <lane id=":2447255569_0_1" index="1" allow="private emergency authority army vip passenger hov taxi bus coach delivery truck trailer motorcycle evehicle custom1 custom2" speed="22.29" length="8.67" shape="2441.34,2884.94 2441.64,2894.37"/>
    </edge>
    <edge id=":2447255569_2" function="internal">
        <lane id=":2447255569_2_0" index="0" allow="private emergency authority army vip passenger hov taxi bus coach delivery truck trailer motorcycle evehicle custom1 custom2" speed="22.35" length="7.82" shape="2438.08,2886.94 2444.21,2892.30"/>
        <lane id=":2447255569_2_1" index="1" allow="private emergency authority army vip passenger hov taxi bus coach delivery truck trailer motorcycle evehicle custom1 custom2" speed="22.35" length="7.82" shape="2435.62,2889.14 2441.64,2894.37"/>
        <lane id=":2447255569_2_2" index="2" allow="private emergency authority army vip passenger hov taxi bus coach delivery truck trailer motorcycle evehicle custom1 custom2" speed="22.35" length="7.82" shape="2433.16,2891.34 2439.07,2896.45"/>
        <lane id=":2447255569_2_3" index="3" allow="private emergency authority army vip passenger hov taxi bus coach delivery truck trailer motorcycle evehicle custom1 custom2" speed="22.35" length="7.82" shape="2430.69,2893.53 2436.50,2898.52"/>
        <lane id=":2447255569_2_4" index="4" allow="private emergency authority army vip passenger hov taxi bus coach delivery truck trailer motorcycle evehicle custom1 custom2" speed="22.35" length="7.82" shape="2428.23,2895.73 2433.93,2900.59"/>
    </edge>
    <edge id=":2447255574_0" function="internal">
        <lane id=":2447255574_0_0" index="0" disallow="tram rail_urban rail rail_electric ship" speed="22.22" length="8.66" shape="2444.95,2812.85 2440.09,2820.01"/>
    </edge>
    <edge id=":2447255574_1" function="internal">
        <lane id=":2447255574_1_0" index="0" disallow="tram rail_urban rail rail_electric ship" speed="18.05" length="3.69" shape="2444.95,2812.85 2443.24,2814.12 2441.75,2814.59"/>
    </edge>
    <edge id=":2447255574_2" function="internal">
        <lane id=":2447255574_2_0" index="0" disallow="tram rail_urban rail rail_electric ship" speed="22.22" length="2.16" shape="2444.95,2812.85 2443.50,2813.18 2442.86,2812.98"/>
    </edge>
    <edge id=":2447255574_9" function="internal">
        <lane id=":2447255574_9_0" index="0" speed="18.05" length="6.40" shape="2441.75,2814.59 2441.09,2814.81 2438.48,2814.91 2435.43,2814.43"/>
    </edge>
    <edge id=":2447255574_10" function="internal">
        <lane id=":2447255574_10_0" index="0" speed="22.22" length="2.66" shape="2442.86,2812.98 2442.62,2812.91 2442.31,2812.04 2442.56,2810.58"/>
    </edge>
    <edge id=":2447255574_3" function="internal">