<?xml version="1.0" encoding="UTF-8"?>

<!-- generated on Fri May 13 14:46:58 2016 by SUMO netconvert Version 0.25.0
<?xml version="1.0" encoding="UTF-8"?>

<configuration xmlns:xsi="http://www.w3.org/2001/XMLSchema-instance" xsi:noNamespaceSchemaLocation="http://sumo.dlr.de/xsd/netconvertConfiguration.xsd">

    <input>
        <type-files value="/local1/liborio/VehicularNetworking/workspace/sumo-0.25.0/data/typemap/osmNetconvert.typ.xml"/>
        <osm-files value="SFDMAT-road-only.osm"/>
    </input>

    <output>
        <output-file value="net.net.xml"/>
    </output>

    <projection>
        <proj.utm value="true"/>
    </projection>

</configuration>
-->

<net version="0.25" xmlns:xsi="http://www.w3.org/2001/XMLSchema-instance" xsi:noNamespaceSchemaLocation="http://sumo.dlr.de/xsd/net_file.xsd">

    <location netOffset="-546342.67,-4182237.76" convBoundary="0.00,0.00,369.32,2123.17" origBoundary="-122.473553,37.786317,-122.469376,37.805457" projParameter="+proj=utm +zone=10 +ellps=WGS84 +datum=WGS84 +units=m +no_defs"/>

    <type id="highway.bridleway" priority="1" numLanes="1" speed="2.78" allow="pedestrian" oneway="1" width="2.00"/>
    <type id="highway.bus_guideway" priority="1" numLanes="1" speed="8.33" allow="bus" oneway="1"/>
    <type id="highway.cycleway" priority="1" numLanes="1" speed="5.56" allow="bicycle" oneway="0" width="1.00"/>
    <type id="highway.footway" priority="1" numLanes="1" speed="8.33" allow="pedestrian" oneway="1" width="2.00"/>
    <type id="highway.ford" priority="1" numLanes="1" speed="2.78" allow="army" oneway="0"/>
    <type id="highway.living_street" priority="3" numLanes="1" speed="2.78" disallow="tram rail_urban rail rail_electric ship" oneway="0"/>
    <type id="highway.motorway" priority="13" numLanes="2" speed="44.44" allow="private emergency authority army vip passenger hov taxi bus coach delivery truck trailer motorcycle evehicle custom1 custom2" oneway="1"/>
    <type id="highway.motorway_link" priority="12" numLanes="1" speed="22.22" allow="private emergency authority army vip passenger hov taxi bus coach delivery truck trailer motorcycle evehicle custom1 custom2" oneway="1"/>
    <type id="highway.path" priority="1" numLanes="1" speed="2.78" allow="bicycle pedestrian" oneway="1" width="2.00"/>
    <type id="highway.pedestrian" priority="1" numLanes="1" speed="8.33" allow="pedestrian" oneway="1" width="2.00"/>
    <type id="highway.primary" priority="9" numLanes="2" speed="27.78" disallow="tram rail_urban rail rail_electric ship" oneway="0"/>
    <type id="highway.primary_link" priority="8" numLanes="1" speed="22.22" disallow="tram rail_urban rail rail_electric ship" oneway="0"/>
    <type id="highway.raceway" priority="14" numLanes="2" speed="83.33" allow="vip" oneway="0"/>
    <type id="highway.residential" priority="4" numLanes="1" speed="13.89" disallow="tram rail_urban rail rail_electric ship" oneway="0"/>
    <type id="highway.secondary" priority="7" numLanes="2" speed="27.78" disallow="tram rail_urban rail rail_electric ship" oneway="0"/>
    <type id="highway.secondary_link" priority="6" numLanes="1" speed="22.22" disallow="tram rail_urban rail rail_electric ship" oneway="0"/>
    <type id="highway.service" priority="2" numLanes="1" speed="5.56" allow="delivery bicycle pedestrian" oneway="0"/>
    <type id="highway.services" priority="1" numLanes="1" speed="8.33" disallow="tram rail_urban rail rail_electric ship" oneway="0"/>
    <type id="highway.stairs" priority="1" numLanes="1" speed="1.39" allow="pedestrian" oneway="1" width="2.00"/>
    <type id="highway.step" priority="1" numLanes="1" speed="1.39" allow="pedestrian" oneway="1" width="2.00"/>
    <type id="highway.steps" priority="1" numLanes="1" speed="1.39" allow="pedestrian" oneway="1" width="2.00"/>
    <type id="highway.tertiary" priority="6" numLanes="1" speed="22.22" disallow="tram rail_urban rail rail_electric ship" oneway="0"/>
    <type id="highway.tertiary_link" priority="5" numLanes="1" speed="22.22" disallow="tram rail_urban rail rail_electric ship" oneway="0"/>
    <type id="highway.track" priority="1" numLanes="1" speed="5.56" disallow="tram rail_urban rail rail_electric ship" oneway="0"/>
    <type id="highway.trunk" priority="11" numLanes="2" speed="27.78" disallow="tram rail_urban rail rail_electric bicycle pedestrian ship" oneway="0"/>
    <type id="highway.trunk_link" priority="10" numLanes="1" speed="22.22" disallow="tram rail_urban rail rail_electric bicycle pedestrian ship" oneway="0"/>
    <type id="highway.unclassified" priority="5" numLanes="1" speed="13.89" disallow="tram rail_urban rail rail_electric ship" oneway="0"/>
    <type id="highway.unsurfaced" priority="1" numLanes="1" speed="8.33" disallow="tram rail_urban rail rail_electric ship" oneway="0"/>
    <type id="railway.light_rail" priority="15" numLanes="1" speed="27.78" allow="rail_urban" oneway="1"/>
    <type id="railway.preserved" priority="15" numLanes="1" speed="27.78" allow="rail" oneway="1"/>
    <type id="railway.rail" priority="15" numLanes="1" speed="83.33" allow="rail rail_electric" oneway="1"/>
    <type id="railway.subway" priority="15" numLanes="1" speed="27.78" allow="rail_urban" oneway="1"/>
    <type id="railway.tram" priority="15" numLanes="1" speed="13.89" allow="tram" oneway="1"/>

    <edge id=":4021519522_0" function="internal">
        <lane id=":4021519522_0_0" index="0" allow="private emergency authority army vip passenger hov taxi bus coach delivery truck trailer motorcycle evehicle custom1 custom2" speed="20.12" length="0.10" shape="349.89,696.63 349.89,696.62"/>
        <lane id=":4021519522_0_1" index="1" allow="private emergency authority army vip passenger hov taxi bus coach delivery truck trailer motorcycle evehicle custom1 custom2" speed="20.12" length="0.10" shape="353.19,696.60 353.19,696.61"/>
    </edge>
    <edge id=":4021519543_0" function="internal">
        <lane id=":4021519543_0_0" index="0" disallow="tram rail_urban rail rail_electric bicycle pedestrian ship" speed="20.12" length="3.33" shape="108.09,120.91 105.61,118.55"/>
        <lane id=":4021519543_0_1" index="1" disallow="tram rail_urban rail rail_electric bicycle pedestrian ship" speed="20.12" length="3.33" shape="108.09,120.91 108.78,117.63"/>
        <lane id=":4021519543_0_2" index="2" disallow="tram rail_urban rail rail_electric bicycle pedestrian ship" speed="20.12" length="3.33" shape="111.21,119.84 111.95,116.70"/>
    </edge>
    <edge id=":4021519547_0" function="internal">
        <lane id=":4021519547_0_0" index="0" allow="private emergency authority army vip passenger hov taxi bus coach delivery truck trailer motorcycle evehicle custom1 custom2" speed="20.12" length="0.14" shape="311.01,501.80 310.94,501.64"/>
        <lane id=":4021519547_0_1" index="1" allow="private emergency authority army vip passenger hov taxi bus coach delivery truck trailer motorcycle evehicle custom1 custom2" speed="20.12" length="0.14" shape="314.01,500.42 313.99,500.38"/>
    </edge>
    <edge id=":4021519561_0" function="internal">
        <lane id=":4021519561_0_0" index="0" disallow="tram rail_urban rail rail_electric bicycle pedestrian ship" speed="20.12" length="0.10" shape="125.69,166.40 125.69,166.40"/>
        <lane id=":4021519561_0_1" index="1" disallow="tram rail_urban rail rail_electric bicycle pedestrian ship" speed="20.12" length="0.10" shape="128.74,165.15 128.75,165.16"/>
    </edge>
    <edge id=":4021519562_0" function="internal">
        <lane id=":4021519562_0_0" index="0" allow="private emergency authority army vip passenger hov taxi bus coach delivery truck trailer motorcycle evehicle custom1 custom2" speed="20.12" length="0.10" shape="288.04,457.02 288.06,457.05"/>
        <lane id=":4021519562_0_1" index="1" allow="private emergency authority army vip passenger hov taxi bus coach delivery truck trailer motorcycle evehicle custom1 custom2" speed="20.12" length="0.10" shape="290.93,455.41 290.92,455.40"/>
    </edge>
    <edge id=":65290362_0" function="internal">
        <lane id=":65290362_0_0" index="0" disallow="tram rail_urban rail rail_electric bicycle pedestrian ship" speed="20.12" length="3.41" shape="123.61,113.94 122.85,117.25"/>
        <lane id=":65290362_0_1" index="1" disallow="tram rail_urban rail rail_electric bicycle pedestrian ship" speed="20.12" length="3.41" shape="120.44,114.84 119.69,118.18"/>
    </edge>
    <edge id=":65290391_0" function="internal">
        <lane id=":65290391_0_0" index="0" allow="private emergency authority army vip passenger hov taxi bus coach delivery truck trailer motorcycle evehicle custom1 custom2" speed="20.12" length="0.10" shape="297.33,451.88 297.33,451.89"/>
        <lane id=":65290391_0_1" index="1" allow="private emergency authority army vip passenger hov taxi bus coach delivery truck trailer motorcycle evehicle custom1 custom2" speed="20.12" length="0.10" shape="294.46,453.52 294.45,453.49"/>
    </edge>
    <edge id=":65290399_0" function="internal">
        <lane id=":65290399_0_0" index="0" allow="private emergency authority army vip passenger hov taxi bus coach delivery truck trailer motorcycle evehicle custom1 custom2" speed="20.12" length="0.10" shape="320.83,497.56 320.84,497.59"/>
        <lane id=":65290399_0_1" index="1" allow="private emergency authority army vip passenger hov taxi bus coach delivery truck trailer motorcycle evehicle custom1 custom2" speed="20.12" length="0.10" shape="317.83,498.94 317.85,498.98"/>
    </edge>
    <edge id=":65290413_0" function="internal">
        <lane id=":65290413_0_0" index="0" allow="private emergency authority army vip passenger hov taxi bus coach delivery truck trailer motorcycle evehicle custom1 custom2" speed="20.12" length="0.10" shape="360.73,696.57 360.73,696.56"/>
        <lane id=":65290413_0_1" index="1" allow="private emergency authority army vip passenger hov taxi bus coach delivery truck trailer motorcycle evehicle custom1 custom2" speed="20.12" length="0.10" shape="357.43,696.59 357.43,696.59"/>
    </edge>
    <edge id=":741745346_0" function="internal">
        <lane id=":741745346_0_0" index="0" allow="private emergency authority army vip passenger hov taxi bus coach delivery truck trailer motorcycle evehicle custom1 custom2" speed="20.12" length="0.10" shape="367.99,1523.34 367.99,1523.34"/>
        <lane id=":741745346_0_1" index="1" allow="private emergency authority army vip passenger hov taxi bus coach delivery truck trailer motorcycle evehicle custom1 custom2" speed="20.12" length="0.10" shape="364.69,1523.37 364.69,1523.37"/>
    </edge>
    <edge id=":741745548_0" function="internal">
        <lane id=":741745548_0_0" index="0" allow="private emergency authority army vip passenger hov taxi bus coach delivery truck trailer motorcycle evehicle custom1 custom2" speed="20.12" length="0.10" shape="369.45,1666.73 369.45,1666.73"/>
        <lane id=":741745548_0_1" index="1" allow="private emergency authority army vip passenger hov taxi bus coach delivery truck trailer motorcycle evehicle custom1 custom2" speed="20.12" length="0.10" shape="366.15,1666.76 366.15,1666.76"/>
    </edge>
    <edge id=":741745750_0" function="internal">
        <lane id=":741745750_0_0" index="0" allow="private emergency authority army vip passenger hov taxi bus coach delivery truck trailer motorcycle evehicle custom1 custom2" speed="20.12" length="0.10" shape="367.19,1436.32 367.19,1436.31"/>
        <lane id=":741745750_0_1" index="1" allow="private emergency authority army vip passenger hov taxi bus coach delivery truck trailer motorcycle evehicle custom1 custom2" speed="20.12" length="0.10" shape="363.89,1436.34 363.89,1436.34"/>
    </edge>
    <edge id=":741745909_0" function="internal">
        <lane id=":741745909_0_0" index="0" allow="private emergency authority army vip passenger hov taxi bus coach delivery truck trailer motorcycle evehicle custom1 custom2" speed="20.12" length="0.10" shape="364.43,1092.99 364.43,1092.99"/>
        <lane id=":741745909_0_1" index="1" allow="private emergency authority army vip passenger hov taxi bus coach delivery truck trailer motorcycle evehicle custom1 custom2" speed="20.12" length="0.10" shape="361.13,1093.02 361.13,1093.02"/>
    </edge>
    <edge id=":741746749_0" function="internal">
        <lane id=":741746749_0_0" index="0" allow="private emergency authority army vip passenger hov taxi bus coach delivery truck trailer motorcycle evehicle custom1 custom2" speed="20.12" length="0.10" shape="365.47,1221.20 365.47,1221.20"/>
        <lane id=":741746749_0_1" index="1" allow="private emergency authority army vip passenger hov taxi bus coach delivery truck trailer motorcycle evehicle custom1 custom2" speed="20.12" length="0.10" shape="362.17,1221.23 362.17,1221.23"/>
    </edge>
    <edge id=":741747304_0" function="internal">
        <lane id=":741747304_0_0" index="0" allow="private emergency authority army vip passenger hov taxi bus coach delivery truck trailer motorcycle evehicle custom1 custom2" speed="20.12" length="0.10" shape="137.05,162.03 137.03,161.97"/>
        <lane id=":741747304_0_1" index="1" allow="private emergency authority army vip passenger hov taxi bus coach delivery truck trailer motorcycle evehicle custom1 custom2" speed="20.12" length="0.10" shape="133.95,163.17 133.95,163.17"/>
    </edge>
    <edge id=":741751191_0" function="internal">
        <lane id=":741751191_0_0" index="0" allow="private emergency authority army vip passenger hov taxi bus coach delivery truck trailer motorcycle evehicle custom1 custom2" speed="20.12" length="0.10" shape="353.76,1093.07 353.76,1093.08"/>
        <lane id=":741751191_0_1" index="1" allow="private emergency authority army vip passenger hov taxi bus coach delivery truck trailer motorcycle evehicle custom1 custom2" speed="20.12" length="0.10" shape="357.06,1093.05 357.06,1093.05"/>
    </edge>
    <edge id=":741751225_0" function="internal">
        <lane id=":741751225_0_0" index="0" allow="private emergency authority army vip passenger hov taxi bus coach delivery truck trailer motorcycle evehicle custom1 custom2" speed="20.12" length="0.10" shape="354.85,1221.31 354.85,1221.31"/>
        <lane id=":741751225_0_1" index="1" allow="private emergency authority army vip passenger hov taxi bus coach delivery truck trailer motorcycle evehicle custom1 custom2" speed="20.12" length="0.10" shape="358.15,1221.28 358.15,1221.28"/>
    </edge>
    <edge id=":741751228_0" function="internal">
        <lane id=":741751228_0_0" index="0" allow="private emergency authority army vip passenger hov taxi bus coach delivery truck trailer motorcycle evehicle custom1 custom2" speed="20.12" length="0.10" shape="356.67,1436.44 356.68,1436.46"/>
        <lane id=":741751228_0_1" index="1" allow="private emergency authority army vip passenger hov taxi bus coach delivery truck trailer motorcycle evehicle custom1 custom2" speed="20.12" length="0.10" shape="359.97,1436.45 359.98,1436.44"/>
    </edge>
    <edge id=":741751306_0" function="internal">
        <lane id=":741751306_0_0" index="0" allow="private emergency authority army vip passenger hov taxi bus coach delivery truck trailer motorcycle evehicle custom1 custom2" speed="17.88" length="0.10" shape="357.95,1667.03 357.95,1667.07"/>
        <lane id=":741751306_0_1" index="1" allow="private emergency authority army vip passenger hov taxi bus coach delivery truck trailer motorcycle evehicle custom1 custom2" speed="17.88" length="0.10" shape="361.25,1667.06 361.25,1667.05"/>
    </edge>
    <edge id=":741751307_0" function="internal">
        <lane id=":741751307_0_0" index="0" allow="private emergency authority army vip passenger hov taxi bus coach delivery truck trailer motorcycle evehicle custom1 custom2" speed="20.12" length="0.10" shape="356.55,1523.39 356.55,1523.37"/>
        <lane id=":741751307_0_1" index="1" allow="private emergency authority army vip passenger hov taxi bus coach delivery truck trailer motorcycle evehicle custom1 custom2" speed="20.12" length="0.10" shape="359.85,1523.36 359.85,1523.38"/>
    </edge>

    <edge id="161493573" from="1674476329" to="741751306" priority="12" type="highway.motorway_link" spreadType="center" shape="129.75,1973.56 144.05,1958.40 155.95,1946.99 169.95,1934.88 182.89,1924.44 198.36,1912.96 215.95,1900.45 230.36,1891.28 244.47,1882.21 258.16,1873.69 273.71,1864.51 289.01,1855.74 299.16,1849.05 308.94,1841.56 316.63,1834.21 324.35,1825.82 331.33,1816.86 337.96,1806.66 343.64,1796.13 348.37,1784.11 352.33,1772.52 355.11,1760.69 357.42,1747.83 358.55,1734.95 359.60,1667.06">
        <lane id="161493573_0" index="0" allow="private emergency authority army vip passenger hov taxi bus coach delivery truck trailer motorcycle evehicle custom1 custom2" speed="15.65" length="412.21" shape="128.55,1972.43 142.87,1957.23 154.84,1945.77 168.90,1933.61 181.88,1923.14 197.39,1911.62 215.03,1899.08 229.47,1889.89 243.58,1880.81 257.30,1872.27 272.89,1863.08 288.15,1854.34 298.20,1847.71 307.87,1840.31 315.45,1833.05 323.09,1824.75 329.99,1815.90 336.54,1805.81 342.14,1795.43 346.82,1783.54 350.75,1772.06 353.50,1760.35 355.78,1747.61 356.90,1734.87 357.95,1667.03"/>
        <lane id="161493573_1" index="1" allow="private emergency authority army vip passenger hov taxi bus coach delivery truck trailer motorcycle evehicle custom1 custom2" speed="15.65" length="412.21" shape="130.95,1974.69 145.22,1959.56 157.06,1948.21 171.01,1936.14 183.90,1925.75 199.33,1914.29 216.88,1901.82 231.25,1892.67 245.35,1883.60 259.01,1875.10 274.54,1865.93 289.88,1857.15 300.11,1850.40 310.02,1842.82 317.81,1835.36 325.61,1826.89 332.68,1817.82 339.38,1807.50 345.14,1796.82 349.92,1784.68 353.92,1772.98 356.73,1761.02 359.06,1748.05 360.20,1735.04 361.25,1667.06"/>
    </edge>
    <edge id="23874453" from="65290413" to="741745909" priority="13" type="highway.motorway" spreadType="center">
        <lane id="23874453_0" index="0" allow="private emergency authority army vip passenger hov taxi bus coach delivery truck trailer motorcycle evehicle custom1 custom2" speed="20.12" length="396.44" shape="360.73,696.56 364.43,1092.99"/>
        <lane id="23874453_1" index="1" allow="private emergency authority army vip passenger hov taxi bus coach delivery truck trailer motorcycle evehicle custom1 custom2" speed="20.12" length="396.44" shape="357.43,696.59 361.13,1093.02"/>
    </edge>
    <edge id="28412306" from="65290391" to="65290399" priority="13" type="highway.motorway" spreadType="center" shape="295.89,452.69 303.22,465.88 308.66,476.35 314.35,487.67 319.32,498.24">
        <lane id="28412306_0" index="0" allow="private emergency authority army vip passenger hov taxi bus coach delivery truck trailer motorcycle evehicle custom1 custom2" speed="20.12" length="51.25" shape="297.33,451.89 304.67,465.10 310.13,475.60 315.83,486.95 320.83,497.56"/>
        <lane id="28412306_1" index="1" allow="private emergency authority army vip passenger hov taxi bus coach delivery truck trailer motorcycle evehicle custom1 custom2" speed="20.12" length="51.25" shape="294.45,453.49 301.76,466.66 307.19,477.10 312.86,488.39 317.83,498.94"/>
    </edge>
    <edge id="33764603" from="65290399" to="65290413" priority="13" type="highway.motorway" spreadType="center" shape="319.32,498.24 323.49,508.04 327.59,518.30 332.15,530.55 336.63,543.58 340.87,557.34 344.79,571.78 348.12,585.68 351.32,601.52 353.71,616.35 355.53,629.90 357.04,643.82 358.17,658.11 358.76,672.35 359.02,686.59 359.08,696.58">
        <lane id="33764603_0" index="0" allow="private emergency authority army vip passenger hov taxi bus coach delivery truck trailer motorcycle evehicle custom1 custom2" speed="20.12" length="203.82" shape="320.84,497.59 325.02,507.41 329.13,517.71 333.70,530.00 338.20,543.07 342.45,556.88 346.39,571.37 349.73,585.32 352.94,601.22 355.34,616.11 357.17,629.70 358.68,643.67 359.82,658.01 360.41,672.30 360.67,686.57 360.73,696.57"/>
        <lane id="33764603_1" index="1" allow="private emergency authority army vip passenger hov taxi bus coach delivery truck trailer motorcycle evehicle custom1 custom2" speed="20.12" length="203.82" shape="317.85,498.98 321.97,508.66 326.05,518.89 330.59,531.11 335.06,544.09 339.28,557.80 343.19,572.19 346.51,586.03 349.69,601.81 352.07,616.59 353.89,630.10 355.39,643.98 356.52,658.21 357.11,672.39 357.37,686.61 357.43,696.59"/>
    </edge>
    <edge id="396959336" from="65290362" to="741747304" priority="11" type="highway.trunk" spreadType="center" shape="120.85,116.28 124.49,128.67 127.88,140.07 132.14,153.22 135.50,162.59">
        <lane id="396959336_0" index="0" disallow="tram rail_urban rail rail_electric bicycle pedestrian ship" speed="20.12" length="47.09" shape="122.85,117.25 126.07,128.20 129.46,139.58 133.70,152.69 137.05,162.03"/>
        <lane id="396959336_1" index="1" disallow="tram rail_urban rail rail_electric bicycle pedestrian ship" speed="20.12" length="47.09" shape="119.69,118.18 122.90,129.14 126.31,140.56 130.58,153.76 133.95,163.17"/>
    </edge>
    <edge id="396959337" from="4021519561" to="4021519543" priority="11" type="highway.trunk" spreadType="center" shape="127.22,165.78 122.61,154.35 118.10,143.48 113.47,131.47 109.18,119.01">
        <lane id="396959337_0" index="0" disallow="tram rail_urban rail rail_electric bicycle pedestrian ship" speed="20.12" length="48.70" shape="125.69,166.40 121.08,154.97 116.57,144.09 111.92,132.04 108.09,120.91"/>
        <lane id="396959337_1" index="1" disallow="tram rail_urban rail rail_electric bicycle pedestrian ship" speed="20.12" length="48.70" shape="128.75,165.16 124.13,153.72 119.63,142.87 115.02,130.91 111.21,119.84"/>
    </edge>
    <edge id="399402797" from="4021519562" to="4021519561" priority="13" type="highway.motorway" spreadType="center" shape="289.48,456.22 177.87,266.64 170.95,254.92 163.53,241.86 156.86,229.70 150.67,217.93 144.73,205.79 138.40,192.27 133.05,180.01 127.22,165.78">
        <lane id="399402797_0" index="0" allow="private emergency authority army vip passenger hov taxi bus coach delivery truck trailer motorcycle evehicle custom1 custom2" speed="20.12" length="333.01" shape="288.06,457.05 176.45,267.48 169.52,255.75 162.09,242.67 155.40,230.48 149.20,218.67 143.24,206.50 136.90,192.95 131.53,180.66 125.69,166.40"/>
        <lane id="399402797_1" index="1" allow="private emergency authority army vip passenger hov taxi bus coach delivery truck trailer motorcycle evehicle custom1 custom2" speed="20.12" length="333.01" shape="290.92,455.40 179.29,265.81 172.38,254.09 164.97,241.06 158.31,228.92 152.14,217.18 146.21,205.07 139.90,191.59 134.57,179.37 128.74,165.15"/>
    </edge>
    <edge id="59763232" from="741745346" to="741745548" priority="12" type="highway.motorway_link" spreadType="center">
        <lane id="59763232_0" index="0" allow="private emergency authority army vip passenger hov taxi bus coach delivery truck trailer motorcycle evehicle custom1 custom2" speed="20.12" length="143.40" shape="367.99,1523.34 369.45,1666.73"/>
        <lane id="59763232_1" index="1" allow="private emergency authority army vip passenger hov taxi bus coach delivery truck trailer motorcycle evehicle custom1 custom2" speed="20.12" length="143.40" shape="364.69,1523.37 366.15,1666.76"/>
    </edge>
    <edge id="59763339" from="741745909" to="741746749" priority="13" type="highway.motorway" spreadType="center">
        <lane id="59763339_0" index="0" allow="private emergency authority army vip passenger hov taxi bus coach delivery truck trailer motorcycle evehicle custom1 custom2" speed="20.12" length="128.22" shape="364.43,1092.99 365.47,1221.20"/>
        <lane id="59763339_1" index="1" allow="private emergency authority army vip passenger hov taxi bus coach delivery truck trailer motorcycle evehicle custom1 custom2" speed="20.12" length="128.22" shape="361.13,1093.02 362.17,1221.23"/>
    </edge>
    <edge id="59763350" from="741745750" to="741745346" priority="13" type="highway.motorway" spreadType="center">
        <lane id="59763350_0" index="0" allow="private emergency authority army vip passenger hov taxi bus coach delivery truck trailer motorcycle evehicle custom1 custom2" speed="20.12" length="87.03" shape="367.19,1436.31 367.99,1523.34"/>
        <lane id="59763350_1" index="1" allow="private emergency authority army vip passenger hov taxi bus coach delivery truck trailer motorcycle evehicle custom1 custom2" speed="20.12" length="87.03" shape="363.89,1436.34 364.69,1523.37"/>
    </edge>
    <edge id="59763351" from="741745548" to="4002287673" priority="12" type="highway.motorway_link" spreadType="center" shape="367.80,1666.75 368.80,1775.11 369.32,1832.31 369.03,1847.67 367.84,1860.57 365.69,1872.28 361.66,1886.13 356.22,1898.37 349.62,1911.36 342.11,1923.22 334.03,1934.50 325.37,1944.73 315.48,1954.00 305.41,1961.87 293.92,1969.16 281.98,1975.06 269.28,1979.95 255.90,1983.96 242.69,1986.89 190.57,1998.08 172.36,2003.08 154.86,2009.56 138.47,2016.95 123.60,2025.41 108.75,2035.04 93.88,2045.49 79.65,2056.25 65.64,2067.66 52.77,2078.94 41.28,2089.17 27.51,2100.66 0.00,2123.17">
        <lane id="59763351_0" index="0" allow="private emergency authority army vip passenger hov taxi bus coach delivery truck trailer motorcycle evehicle custom1 custom2" speed="20.12" length="667.57" shape="369.45,1666.73 370.45,1775.09 370.97,1832.32 370.68,1847.77 369.47,1860.80 367.30,1872.66 363.22,1886.70 357.71,1899.08 351.05,1912.18 343.48,1924.15 335.33,1935.51 326.57,1945.87 316.56,1955.25 306.36,1963.22 294.73,1970.60 282.64,1976.58 269.82,1981.51 256.31,1985.56 243.05,1988.50 190.96,1999.68 172.87,2004.65 155.48,2011.09 139.22,2018.42 124.45,2026.82 109.67,2036.41 94.85,2046.82 80.67,2057.55 66.71,2068.92 53.86,2080.18 42.35,2090.42 28.56,2101.93 1.04,2124.45"/>
        <lane id="59763351_1" index="1" allow="private emergency authority army vip passenger hov taxi bus coach delivery truck trailer motorcycle evehicle custom1 custom2" speed="20.12" length="667.57" shape="366.15,1666.76 367.15,1775.12 367.67,1832.30 367.38,1847.58 366.20,1860.35 364.09,1871.90 360.11,1885.56 354.73,1897.66 348.18,1910.54 340.74,1922.30 332.72,1933.48 324.17,1943.59 314.41,1952.74 304.46,1960.52 293.11,1967.72 281.32,1973.55 268.75,1978.39 255.48,1982.36 242.34,1985.28 190.18,1996.48 171.85,2001.51 154.23,2008.03 137.72,2015.48 122.74,2024.00 107.83,2033.67 92.90,2044.15 78.63,2054.95 64.58,2066.40 51.68,2077.70 40.20,2087.92 26.46,2099.38 -1.04,2121.89"/>
    </edge>
    <edge id="59763602" from="741746749" to="741745750" priority="13" type="highway.motorway" spreadType="center">
        <lane id="59763602_0" index="0" allow="private emergency authority army vip passenger hov taxi bus coach delivery truck trailer motorcycle evehicle custom1 custom2" speed="20.12" length="215.12" shape="365.47,1221.20 367.19,1436.32"/>
        <lane id="59763602_1" index="1" allow="private emergency authority army vip passenger hov taxi bus coach delivery truck trailer motorcycle evehicle custom1 custom2" speed="20.12" length="215.12" shape="362.17,1221.23 363.89,1436.34"/>
    </edge>
    <edge id="59764940" from="741747304" to="65290391" priority="13" type="highway.motorway" spreadType="center" shape="135.50,162.59 141.11,176.67 146.37,188.70 152.62,202.04 158.48,214.00 164.57,225.59 171.17,237.64 178.53,250.57 185.42,262.26 295.89,452.69">
        <lane id="59764940_0" index="0" allow="private emergency authority army vip passenger hov taxi bus coach delivery truck trailer motorcycle evehicle custom1 custom2" speed="20.12" length="331.80" shape="137.03,161.97 142.64,176.04 147.88,188.02 154.11,201.32 159.95,213.25 166.02,224.81 172.61,236.83 179.96,249.74 186.85,261.43 297.33,451.88"/>
        <lane id="59764940_1" index="1" allow="private emergency authority army vip passenger hov taxi bus coach delivery truck trailer motorcycle evehicle custom1 custom2" speed="20.12" length="331.80" shape="133.95,163.17 139.59,177.31 144.87,189.38 151.13,202.75 157.01,214.74 163.11,226.37 169.73,238.44 177.10,251.40 184.00,263.09 294.46,453.52"/>
    </edge>
    <edge id="59766456" from="4021519543" to="258906453" priority="11" type="highway.trunk" spreadType="center" shape="109.18,119.01 104.89,104.25 101.01,89.04 97.39,74.05 94.01,59.46 91.16,44.55 88.59,27.89 86.43,11.17 85.24,0.00">
        <lane id="59766456_0" index="0" disallow="tram rail_urban rail rail_electric bicycle pedestrian ship" speed="20.12" length="120.15" shape="105.61,118.55 101.71,105.12 97.80,89.83 94.18,74.81 90.78,60.15 87.90,45.11 85.32,28.35 83.15,11.55 81.96,0.35"/>
        <lane id="59766456_1" index="1" disallow="tram rail_urban rail rail_electric bicycle pedestrian ship" speed="20.12" length="120.15" shape="108.78,117.63 104.89,104.25 101.01,89.04 97.39,74.05 94.01,59.46 91.16,44.55 88.59,27.89 86.43,11.17 85.24,-0.00"/>
        <lane id="59766456_2" index="2" disallow="tram rail_urban rail rail_electric bicycle pedestrian ship" speed="20.12" length="120.15" shape="111.95,116.70 108.08,103.38 104.21,88.24 100.60,73.29 97.23,58.78 94.41,43.99 91.86,27.43 89.71,10.78 88.53,-0.35"/>
    </edge>
    <edge id="59766528" from="4021519547" to="4021519562" priority="13" type="highway.motorway" spreadType="center" shape="312.48,501.05 307.76,490.84 302.15,479.67 296.76,469.32 289.48,456.22">
        <lane id="59766528_0" index="0" allow="private emergency authority army vip passenger hov taxi bus coach delivery truck trailer motorcycle evehicle custom1 custom2" speed="20.12" length="50.36" shape="310.94,501.64 306.27,491.55 300.68,480.42 295.31,470.10 288.04,457.02"/>
        <lane id="59766528_1" index="1" allow="private emergency authority army vip passenger hov taxi bus coach delivery truck trailer motorcycle evehicle custom1 custom2" speed="20.12" length="50.36" shape="313.99,500.38 309.25,490.12 303.61,478.91 298.22,468.54 290.93,455.41"/>
    </edge>