<?xml version="1.0" encoding="UTF-8"?>

<!-- generated on Mon Jun 13 00:34:35 2016 by SUMO netconvert Version 0.25.0
<?xml version="1.0" encoding="UTF-8"?>

<configuration xmlns:xsi="http://www.w3.org/2001/XMLSchema-instance" xsi:noNamespaceSchemaLocation="http://sumo.dlr.de/xsd/netconvertConfiguration.xsd">

    <input>
        <type-files value="/local1/liborio/VehicularNetworking/workspace/sumo-0.25.0/data/typemap/osmNetconvert.typ.xml"/>
        <osm-files value="rio-highways-only.osm"/>
    </input>

    <output>
        <output-file value="RIO450.net.xml"/>
    </output>

    <projection>
        <proj.utm value="true"/>
    </projection>

</configuration>
-->

<net version="0.25" xmlns:xsi="http://www.w3.org/2001/XMLSchema-instance" xsi:noNamespaceSchemaLocation="http://sumo.dlr.de/xsd/net_file.xsd">

    <location netOffset="-683823.82,2534726.50" convBoundary="0.00,0.00,3678.24,1884.69" origBoundary="-43.207808,-22.910044,-43.171809,-22.893287" projParameter="+proj=utm +zone=23 +ellps=WGS84 +datum=WGS84 +units=m +no_defs"/>

    <type id="highway.bridleway" priority="1" numLanes="1" speed="2.78" allow="pedestrian" oneway="1" width="2.00"/>
    <type id="highway.bus_guideway" priority="1" numLanes="1" speed="8.33" allow="bus" oneway="1"/>
    <type id="highway.cycleway" priority="1" numLanes="1" speed="5.56" allow="bicycle" oneway="0" width="1.00"/>
    <type id="highway.footway" priority="1" numLanes="1" speed="8.33" allow="pedestrian" oneway="1" width="2.00"/>
    <type id="highway.ford" priority="1" numLanes="1" speed="2.78" allow="army" oneway="0"/>
    <type id="highway.living_street" priority="3" numLanes="1" speed="2.78" disallow="tram rail_urban rail rail_electric ship" oneway="0"/>
    <type id="highway.motorway" priority="13" numLanes="2" speed="44.44" allow="private emergency authority army vip passenger hov taxi bus coach delivery truck trailer motorcycle evehicle custom1 custom2" oneway="1"/>
    <type id="highway.motorway_link" priority="12" numLanes="1" speed="22.22" allow="private emergency authority army vip passenger hov taxi bus coach delivery truck trailer motorcycle evehicle custom1 custom2" oneway="1"/>
    <type id="highway.path" priority="1" numLanes="1" speed="2.78" allow="bicycle pedestrian" oneway="1" width="2.00"/>
    <type id="highway.pedestrian" priority="1" numLanes="1" speed="8.33" allow="pedestrian" oneway="1" width="2.00"/>
    <type id="highway.primary" priority="9" numLanes="2" speed="27.78" disallow="tram rail_urban rail rail_electric ship" oneway="0"/>
    <type id="highway.primary_link" priority="8" numLanes="1" speed="22.22" disallow="tram rail_urban rail rail_electric ship" oneway="0"/>
    <type id="highway.raceway" priority="14" numLanes="2" speed="83.33" allow="vip" oneway="0"/>
    <type id="highway.residential" priority="4" numLanes="1" speed="13.89" disallow="tram rail_urban rail rail_electric ship" oneway="0"/>
    <type id="highway.secondary" priority="7" numLanes="2" speed="27.78" disallow="tram rail_urban rail rail_electric ship" oneway="0"/>
    <type id="highway.secondary_link" priority="6" numLanes="1" speed="22.22" disallow="tram rail_urban rail rail_electric ship" oneway="0"/>
    <type id="highway.service" priority="2" numLanes="1" speed="5.56" allow="delivery bicycle pedestrian" oneway="0"/>
    <type id="highway.services" priority="1" numLanes="1" speed="8.33" disallow="tram rail_urban rail rail_electric ship" oneway="0"/>
    <type id="highway.stairs" priority="1" numLanes="1" speed="1.39" allow="pedestrian" oneway="1" width="2.00"/>
    <type id="highway.step" priority="1" numLanes="1" speed="1.39" allow="pedestrian" oneway="1" width="2.00"/>
    <type id="highway.steps" priority="1" numLanes="1" speed="1.39" allow="pedestrian" oneway="1" width="2.00"/>
    <type id="highway.tertiary" priority="6" numLanes="1" speed="22.22" disallow="tram rail_urban rail rail_electric ship" oneway="0"/>
    <type id="highway.tertiary_link" priority="5" numLanes="1" speed="22.22" disallow="tram rail_urban rail rail_electric ship" oneway="0"/>
    <type id="highway.track" priority="1" numLanes="1" speed="5.56" disallow="tram rail_urban rail rail_electric ship" oneway="0"/>
    <type id="highway.trunk" priority="11" numLanes="2" speed="27.78" disallow="tram rail_urban rail rail_electric bicycle pedestrian ship" oneway="0"/>
    <type id="highway.trunk_link" priority="10" numLanes="1" speed="22.22" disallow="tram rail_urban rail rail_electric bicycle pedestrian ship" oneway="0"/>
    <type id="highway.unclassified" priority="5" numLanes="1" speed="13.89" disallow="tram rail_urban rail rail_electric ship" oneway="0"/>
    <type id="highway.unsurfaced" priority="1" numLanes="1" speed="8.33" disallow="tram rail_urban rail rail_electric ship" oneway="0"/>
    <type id="railway.light_rail" priority="15" numLanes="1" speed="27.78" allow="rail_urban" oneway="1"/>
    <type id="railway.preserved" priority="15" numLanes="1" speed="27.78" allow="rail" oneway="1"/>
    <type id="railway.rail" priority="15" numLanes="1" speed="83.33" allow="rail rail_electric" oneway="1"/>
    <type id="railway.subway" priority="15" numLanes="1" speed="27.78" allow="rail_urban" oneway="1"/>
    <type id="railway.tram" priority="15" numLanes="1" speed="13.89" allow="tram" oneway="1"/>

    <edge id=":1237868306_0" function="internal">
        <lane id=":1237868306_0_0" index="0" disallow="tram rail_urban rail rail_electric ship" speed="27.78" length="0.13" shape="3616.95,198.78 3616.89,198.97"/>
        <lane id=":1237868306_0_1" index="1" disallow="tram rail_urban rail rail_electric ship" speed="27.78" length="0.13" shape="3613.78,197.86 3613.78,197.86"/>
        <lane id=":1237868306_0_2" index="2" disallow="tram rail_urban rail rail_electric ship" speed="27.78" length="0.13" shape="3610.64,196.82 3610.63,196.87"/>
    </edge>
    <edge id=":1539633435_0" function="internal">
        <lane id=":1539633435_0_0" index="0" disallow="tram rail_urban rail rail_electric ship" speed="27.78" length="0.76" shape="3408.48,657.76 3407.91,658.96"/>
        <lane id=":1539633435_0_1" index="1" disallow="tram rail_urban rail rail_electric ship" speed="27.78" length="0.76" shape="3405.42,656.52 3405.02,657.38"/>
        <lane id=":1539633435_0_2" index="2" disallow="tram rail_urban rail rail_electric ship" speed="27.78" length="0.76" shape="3402.36,655.28 3402.12,655.80"/>
        <lane id=":1539633435_0_3" index="3" disallow="tram rail_urban rail rail_electric ship" speed="27.78" length="0.76" shape="3399.30,654.05 3399.22,654.21"/>
    </edge>
    <edge id=":1842385368_0" function="internal">
        <lane id=":1842385368_0_0" index="0" disallow="tram rail_urban rail rail_electric ship" speed="27.78" length="3.41" shape="3137.36,1226.58 3138.72,1229.68"/>
        <lane id=":1842385368_0_1" index="1" disallow="tram rail_urban rail rail_electric ship" speed="27.78" length="3.41" shape="3137.36,1226.58 3135.43,1229.38"/>
        <lane id=":1842385368_0_2" index="2" disallow="tram rail_urban rail rail_electric ship" speed="27.78" length="3.41" shape="3134.08,1226.23 3132.15,1229.08"/>
    </edge>
    <edge id=":1842385384_0" function="internal">
        <lane id=":1842385384_0_0" index="0" disallow="tram rail_urban rail rail_electric ship" speed="27.78" length="0.10" shape="1424.90,1882.92 1424.89,1882.92"/>
        <lane id=":1842385384_0_1" index="1" disallow="tram rail_urban rail rail_electric ship" speed="27.78" length="0.10" shape="1424.70,1879.63 1424.74,1879.62"/>
    </edge>
    <edge id=":1842385445_0" function="internal">
        <lane id=":1842385445_0_0" index="0" disallow="tram rail_urban rail rail_electric ship" speed="27.78" length="3.29" shape="1487.97,1880.52 1485.13,1878.99"/>
        <lane id=":1842385445_0_1" index="1" disallow="tram rail_urban rail rail_electric ship" speed="27.78" length="3.29" shape="1487.91,1877.22 1484.92,1875.70"/>
    </edge>
    <edge id=":1869400051_0" function="internal">
        <lane id=":1869400051_0_0" index="0" disallow="tram rail_urban rail rail_electric ship" speed="27.78" length="0.25" shape="677.42,1631.07 677.31,1631.02"/>
        <lane id=":1869400051_0_1" index="1" disallow="tram rail_urban rail rail_electric ship" speed="27.78" length="0.25" shape="679.01,1628.18 678.67,1628.01"/>
    </edge>
    <edge id=":218451874_0" function="internal">
        <lane id=":218451874_0_0" index="0" disallow="tram rail_urban rail rail_electric ship" speed="27.78" length="0.11" shape="3618.39,194.60 3618.37,194.65"/>
        <lane id=":218451874_0_1" index="1" disallow="tram rail_urban rail rail_electric ship" speed="27.78" length="0.11" shape="3615.24,193.60 3615.24,193.60"/>
        <lane id=":218451874_0_2" index="2" disallow="tram rail_urban rail rail_electric ship" speed="27.78" length="0.11" shape="3612.13,192.50 3612.08,192.63"/>
    </edge>
    <edge id=":218483427_0" function="internal">
        <lane id=":218483427_0_0" index="0" disallow="tram rail_urban rail rail_electric ship" speed="27.78" length="0.49" shape="3181.01,1046.61 3180.97,1046.73"/>
        <lane id=":218483427_0_1" index="1" disallow="tram rail_urban rail rail_electric ship" speed="27.78" length="0.49" shape="3177.92,1045.45 3177.80,1045.80"/>
        <lane id=":218483427_0_2" index="2" disallow="tram rail_urban rail rail_electric ship" speed="27.78" length="0.49" shape="3174.83,1044.29 3174.63,1044.87"/>
        <lane id=":218483427_0_3" index="3" disallow="tram rail_urban rail rail_electric ship" speed="27.78" length="0.49" shape="3171.74,1043.12 3171.47,1043.94"/>
    </edge>
    <edge id=":218483428_0" function="internal">
        <lane id=":218483428_0_0" index="0" disallow="tram rail_urban rail rail_electric ship" speed="27.78" length="4.38" shape="3171.41,1079.33 3167.48,1081.18"/>
        <lane id=":218483428_0_1" index="1" disallow="tram rail_urban rail rail_electric ship" speed="27.78" length="4.38" shape="3168.24,1078.40 3164.28,1080.36"/>
    </edge>
    <edge id=":2654018230_0" function="internal">
        <lane id=":2654018230_0_0" index="0" disallow="tram rail_urban rail rail_electric ship" speed="27.78" length="0.10" shape="3658.08,69.32 3658.08,69.31"/>
        <lane id=":2654018230_0_1" index="1" disallow="tram rail_urban rail rail_electric ship" speed="27.78" length="0.10" shape="3654.91,68.38 3654.91,68.38"/>
        <lane id=":2654018230_0_2" index="2" disallow="tram rail_urban rail rail_electric ship" speed="27.78" length="0.10" shape="3651.75,67.45 3651.75,67.45"/>
    </edge>
    <edge id=":2660516885_0" function="internal">
        <lane id=":2660516885_0_0" index="0" disallow="tram rail_urban rail rail_electric ship" speed="27.78" length="0.37" shape="3580.03,315.43 3579.84,316.02"/>
        <lane id=":2660516885_0_1" index="1" disallow="tram rail_urban rail rail_electric ship" speed="27.78" length="0.37" shape="3576.84,314.57 3576.73,314.93"/>
        <lane id=":2660516885_0_2" index="2" disallow="tram rail_urban rail rail_electric ship" speed="27.78" length="0.37" shape="3573.65,313.72 3573.62,313.83"/>
    </edge>
    <edge id=":2660516923_0" function="internal">
        <lane id=":2660516923_0_0" index="0" disallow="tram rail_urban rail rail_electric ship" speed="27.78" length="0.11" shape="3659.35,65.02 3659.31,65.15"/>
        <lane id=":2660516923_0_1" index="1" disallow="tram rail_urban rail rail_electric ship" speed="27.78" length="0.11" shape="3656.17,64.11 3656.17,64.11"/>
        <lane id=":2660516923_0_2" index="2" disallow="tram rail_urban rail rail_electric ship" speed="27.78" length="0.11" shape="3653.03,63.10 3653.03,63.11"/>
    </edge>
    <edge id=":2660516949_0" function="internal">
        <lane id=":2660516949_0_0" index="0" disallow="tram rail_urban rail rail_electric ship" speed="27.78" length="0.10" shape="3657.01,72.98 3657.00,72.98"/>
        <lane id=":2660516949_0_1" index="1" disallow="tram rail_urban rail rail_electric ship" speed="27.78" length="0.10" shape="3653.84,72.05 3653.84,72.05"/>
        <lane id=":2660516949_0_2" index="2" disallow="tram rail_urban rail rail_electric ship" speed="27.78" length="0.10" shape="3650.67,71.12 3650.67,71.12"/>
    </edge>
    <edge id=":2912973162_0" function="internal">
        <lane id=":2912973162_0_0" index="0" disallow="tram rail_urban rail rail_electric ship" speed="27.78" length="0.36" shape="3361.85,728.38 3361.48,728.88"/>
        <lane id=":2912973162_0_1" index="1" disallow="tram rail_urban rail rail_electric ship" speed="27.78" length="0.36" shape="3359.14,726.50 3358.87,726.86"/>
        <lane id=":2912973162_0_2" index="2" disallow="tram rail_urban rail rail_electric ship" speed="27.78" length="0.36" shape="3356.42,724.62 3356.27,724.83"/>
        <lane id=":2912973162_0_3" index="3" disallow="tram rail_urban rail rail_electric ship" speed="27.78" length="0.36" shape="3353.71,722.74 3353.66,722.81"/>
    </edge>
    <edge id=":2966860408_0" function="internal">
        <lane id=":2966860408_0_0" index="0" disallow="tram rail_urban rail rail_electric ship" speed="27.78" length="0.29" shape="1733.83,1855.60 1733.74,1855.65"/>
        <lane id=":2966860408_0_1" index="1" disallow="tram rail_urban rail rail_electric ship" speed="27.78" length="0.29" shape="1732.43,1852.62 1732.17,1852.75"/>
        <lane id=":2966860408_0_2" index="2" disallow="tram rail_urban rail rail_electric ship" speed="27.78" length="0.29" shape="1731.03,1849.63 1730.59,1849.85"/>
    </edge>
    <edge id=":331378779_0" function="internal">
        <lane id=":331378779_0_0" index="0" disallow="tram rail_urban rail rail_electric ship" speed="27.78" length="0.77" shape="3400.92,671.87 3400.22,673.03"/>
        <lane id=":331378779_0_1" index="1" disallow="tram rail_urban rail rail_electric ship" speed="27.78" length="0.77" shape="3398.00,670.32 3397.50,671.15"/>
        <lane id=":331378779_0_2" index="2" disallow="tram rail_urban rail rail_electric ship" speed="27.78" length="0.77" shape="3395.09,668.77 3394.79,669.27"/>
        <lane id=":331378779_0_3" index="3" disallow="tram rail_urban rail rail_electric ship" speed="27.78" length="0.77" shape="3392.18,667.23 3392.08,667.39"/>
    </edge>
    <edge id=":331385855_0" function="internal">
        <lane id=":331385855_0_0" index="0" disallow="tram rail_urban rail rail_electric ship" speed="27.78" length="0.26" shape="3138.99,1211.09 3138.98,1211.22"/>
        <lane id=":331385855_0_1" index="1" disallow="tram rail_urban rail rail_electric ship" speed="27.78" length="0.26" shape="3135.75,1210.48 3135.69,1210.87"/>
    </edge>
    <edge id=":3362874759_0" function="internal">
        <lane id=":3362874759_0_0" index="0" disallow="tram rail_urban rail rail_electric ship" speed="27.78" length="3.40" shape="1980.46,1761.88 1978.13,1764.48"/>
        <lane id=":3362874759_0_1" index="1" disallow="tram rail_urban rail rail_electric ship" speed="27.78" length="3.40" shape="1980.46,1761.88 1977.04,1761.36"/>
        <lane id=":3362874759_0_2" index="2" disallow="tram rail_urban rail rail_electric ship" speed="27.78" length="3.40" shape="1979.29,1758.79 1975.96,1758.24"/>
        <lane id=":3362874759_0_3" index="3" disallow="tram rail_urban rail rail_electric ship" speed="27.78" length="3.40" shape="1978.11,1755.70 1974.87,1755.13"/>
    </edge>
    <edge id=":344570265_0" function="internal">
        <lane id=":344570265_0_0" index="0" disallow="tram rail_urban rail rail_electric ship" speed="27.78" length="3.40" shape="3560.91,373.08 3561.62,376.33"/>
        <lane id=":344570265_0_1" index="1" disallow="tram rail_urban rail rail_electric ship" speed="27.78" length="3.40" shape="3560.91,373.08 3558.46,375.38"/>
        <lane id=":344570265_0_2" index="2" disallow="tram rail_urban rail rail_electric ship" speed="27.78" length="3.40" shape="3557.77,372.06 3555.30,374.42"/>
        <lane id=":344570265_0_3" index="3" disallow="tram rail_urban rail rail_electric ship" speed="27.78" length="3.40" shape="3554.63,371.04 3552.14,373.47"/>
    </edge>
    <edge id=":3649910631_0" function="internal">
        <lane id=":3649910631_0_0" index="0" disallow="tram rail_urban rail rail_electric ship" speed="27.78" length="0.10" shape="3189.85,1023.13 3189.85,1023.13"/>
        <lane id=":3649910631_0_1" index="1" disallow="tram rail_urban rail rail_electric ship" speed="27.78" length="0.10" shape="3186.76,1021.97 3186.76,1021.97"/>
        <lane id=":3649910631_0_2" index="2" disallow="tram rail_urban rail rail_electric ship" speed="27.78" length="0.10" shape="3183.67,1020.80 3183.67,1020.80"/>
        <lane id=":3649910631_0_3" index="3" disallow="tram rail_urban rail rail_electric ship" speed="27.78" length="0.10" shape="3180.59,1019.64 3180.59,1019.64"/>
    </edge>
    <edge id=":3649910632_0" function="internal">
        <lane id=":3649910632_0_0" index="0" disallow="tram rail_urban rail rail_electric ship" speed="27.78" length="0.12" shape="3191.77,1018.06 3191.70,1018.24"/>
        <lane id=":3649910632_0_1" index="1" disallow="tram rail_urban rail rail_electric ship" speed="27.78" length="0.12" shape="3188.65,1016.96 3188.67,1016.92"/>
        <lane id=":3649910632_0_2" index="2" disallow="tram rail_urban rail rail_electric ship" speed="27.78" length="0.12" shape="3185.59,1015.72 3185.59,1015.73"/>
        <lane id=":3649910632_0_3" index="3" disallow="tram rail_urban rail rail_electric ship" speed="27.78" length="0.12" shape="3182.54,1014.47 3182.50,1014.56"/>
    </edge>
    <edge id=":3649910637_0" function="internal">
        <lane id=":3649910637_0_0" index="0" disallow="tram rail_urban rail rail_electric ship" speed="27.78" length="0.10" shape="3246.86,898.13 3246.85,898.15"/>
        <lane id=":3649910637_0_1" index="1" disallow="tram rail_urban rail rail_electric ship" speed="27.78" length="0.10" shape="3244.03,896.43 3244.03,896.43"/>
        <lane id=":3649910637_0_2" index="2" disallow="tram rail_urban rail rail_electric ship" speed="27.78" length="0.10" shape="3241.20,894.73 3241.21,894.72"/>
        <lane id=":3649910637_0_3" index="3" disallow="tram rail_urban rail rail_electric ship" speed="27.78" length="0.10" shape="3238.38,893.02 3238.39,893.00"/>
    </edge>
    <edge id=":3649910638_0" function="internal">
        <lane id=":3649910638_0_0" index="0" disallow="tram rail_urban rail rail_electric ship" speed="27.78" length="0.10" shape="3249.20,894.24 3249.22,894.20"/>
        <lane id=":3649910638_0_1" index="1" disallow="tram rail_urban rail rail_electric ship" speed="27.78" length="0.10" shape="3246.39,892.51 3246.39,892.50"/>
        <lane id=":3649910638_0_2" index="2" disallow="tram rail_urban rail rail_electric ship" speed="27.78" length="0.10" shape="3243.58,890.78 3243.57,890.79"/>
        <lane id=":3649910638_0_3" index="3" disallow="tram rail_urban rail rail_electric ship" speed="27.78" length="0.10" shape="3240.76,889.05 3240.76,889.06"/>
    </edge>
    <edge id=":3649910641_0" function="internal">
        <lane id=":3649910641_0_0" index="0" disallow="tram rail_urban rail rail_electric ship" speed="27.78" length="0.33" shape="3278.23,847.06 3278.19,847.13"/>
        <lane id=":3649910641_0_1" index="1" disallow="tram rail_urban rail rail_electric ship" speed="27.78" length="0.33" shape="3275.50,845.20 3275.37,845.41"/>
        <lane id=":3649910641_0_2" index="2" disallow="tram rail_urban rail rail_electric ship" speed="27.78" length="0.33" shape="3272.78,843.34 3272.55,843.69"/>
        <lane id=":3649910641_0_3" index="3" disallow="tram rail_urban rail rail_electric ship" speed="27.78" length="0.33" shape="3270.05,841.48 3269.74,841.96"/>
    </edge>
    <edge id=":3649910642_0" function="internal">
        <lane id=":3649910642_0_0" index="0" disallow="tram rail_urban rail rail_electric ship" speed="27.78" length="0.11" shape="3280.75,843.38 3280.66,843.50"/>
        <lane id=":3649910642_0_1" index="1" disallow="tram rail_urban rail rail_electric ship" speed="27.78" length="0.11" shape="3277.99,841.56 3278.01,841.53"/>
        <lane id=":3649910642_0_2" index="2" disallow="tram rail_urban rail rail_electric ship" speed="27.78" length="0.11" shape="3275.30,839.65 3275.29,839.65"/>
        <lane id=":3649910642_0_3" index="3" disallow="tram rail_urban rail rail_electric ship" speed="27.78" length="0.11" shape="3272.62,837.72 3272.57,837.79"/>
    </edge>
    <edge id=":3649910651_0" function="internal">
        <lane id=":3649910651_0_0" index="0" disallow="tram rail_urban rail rail_electric ship" speed="27.78" length="0.10" shape="3358.61,732.57 3358.61,732.57"/>
        <lane id=":3649910651_0_1" index="1" disallow="tram rail_urban rail rail_electric ship" speed="27.78" length="0.10" shape="3356.00,730.55 3356.00,730.55"/>
        <lane id=":3649910651_0_2" index="2" disallow="tram rail_urban rail rail_electric ship" speed="27.78" length="0.10" shape="3353.40,728.53 3353.40,728.53"/>
        <lane id=":3649910651_0_3" index="3" disallow="tram rail_urban rail rail_electric ship" speed="27.78" length="0.10" shape="3350.79,726.50 3350.79,726.50"/>
    </edge>
    <edge id=":3649910657_0" function="internal">
        <lane id=":3649910657_0_0" index="0" disallow="tram rail_urban rail rail_electric ship" speed="27.78" length="0.49" shape="3410.49,652.80 3410.44,652.91"/>
        <lane id=":3649910657_0_1" index="1" disallow="tram rail_urban rail rail_electric ship" speed="27.78" length="0.49" shape="3407.53,651.34 3407.38,651.68"/>
        <lane id=":3649910657_0_2" index="2" disallow="tram rail_urban rail rail_electric ship" speed="27.78" length="0.49" shape="3404.57,649.88 3404.32,650.44"/>
        <lane id=":3649910657_0_3" index="3" disallow="tram rail_urban rail rail_electric ship" speed="27.78" length="0.49" shape="3401.61,648.42 3401.26,649.20"/>
    </edge>
    <edge id=":4217680708_0" function="internal">
        <lane id=":4217680708_0_0" index="0" disallow="tram rail_urban rail rail_electric ship" speed="27.78" length="3.25" shape="1764.35,1843.23 1761.29,1842.76"/>
        <lane id=":4217680708_0_1" index="1" disallow="tram rail_urban rail rail_electric ship" speed="27.78" length="3.25" shape="1763.11,1840.16 1759.89,1839.77"/>
        <lane id=":4217680708_0_2" index="2" disallow="tram rail_urban rail rail_electric ship" speed="27.78" length="3.25" shape="1761.88,1837.10 1758.49,1836.78"/>
    </edge>
    <edge id=":479252935_0" function="internal">
        <lane id=":479252935_0_0" index="0" disallow="tram rail_urban rail rail_electric ship" speed="27.78" length="0.15" shape="3581.44,310.20 3581.37,310.46"/>
        <lane id=":479252935_0_1" index="1" disallow="tram rail_urban rail rail_electric ship" speed="27.78" length="0.15" shape="3578.23,309.40 3578.23,309.40"/>
        <lane id=":479252935_0_2" index="2" disallow="tram rail_urban rail rail_electric ship" speed="27.78" length="0.15" shape="3575.07,308.44 3575.06,308.49"/>
    </edge>
    <edge id=":479889056_0" function="internal">
        <lane id=":479889056_0_0" index="0" disallow="tram rail_urban rail rail_electric ship" speed="27.78" length="0.10" shape="3430.31,616.07 3430.30,616.08"/>
        <lane id=":479889056_0_1" index="1" disallow="tram rail_urban rail rail_electric ship" speed="27.78" length="0.10" shape="3427.54,614.27 3427.55,614.25"/>
        <lane id=":479889056_0_2" index="2" disallow="tram rail_urban rail rail_electric ship" speed="27.78" length="0.10" shape="3424.82,612.39 3424.82,612.40"/>
        <lane id=":479889056_0_3" index="3" disallow="tram rail_urban rail rail_electric ship" speed="27.78" length="0.10" shape="3422.11,610.52 3422.11,610.52"/>
    </edge>
    <edge id=":506679902_0" function="internal">
        <lane id=":506679902_0_0" index="0" allow="delivery bicycle pedestrian" speed="5.56" length="0.10" shape="3450.28,554.99 3450.28,554.99"/>
    </edge>
    <edge id=":610592736_0" function="internal">
        <lane id=":610592736_0_0" index="0" disallow="tram rail_urban rail rail_electric ship" speed="27.78" length="0.14" shape="3551.87,404.73 3551.79,404.97"/>
        <lane id=":610592736_0_1" index="1" disallow="tram rail_urban rail rail_electric ship" speed="27.78" length="0.14" shape="3548.71,403.78 3548.73,403.72"/>
        <lane id=":610592736_0_2" index="2" disallow="tram rail_urban rail rail_electric ship" speed="27.78" length="0.14" shape="3545.61,402.65 3545.60,402.66"/>
        <lane id=":610592736_0_3" index="3" disallow="tram rail_urban rail rail_electric ship" speed="27.78" length="0.14" shape="3542.51,401.51 3542.47,401.61"/>
    </edge>
    <edge id=":611055202_0" function="internal">
        <lane id=":611055202_0_0" index="0" disallow="tram rail_urban rail rail_electric ship" speed="27.78" length="0.10" shape="3447.00,591.78 3447.00,591.78"/>
        <lane id=":611055202_0_1" index="1" disallow="tram rail_urban rail rail_electric ship" speed="27.78" length="0.10" shape="3444.25,589.95 3444.25,589.95"/>
        <lane id=":611055202_0_2" index="2" disallow="tram rail_urban rail rail_electric ship" speed="27.78" length="0.10" shape="3441.51,588.12 3441.51,588.12"/>
        <lane id=":611055202_0_3" index="3" disallow="tram rail_urban rail rail_electric ship" speed="27.78" length="0.10" shape="3438.76,586.30 3438.76,586.29"/>
    </edge>
    <edge id=":614467930_0" function="internal">
        <lane id=":614467930_0_0" index="0" allow="delivery bicycle pedestrian" speed="5.56" length="0.67" shape="3439.99,569.28 3439.49,569.73"/>
    </edge>
    <edge id=":799917339_0" function="internal">
        <lane id=":799917339_0_0" index="0" disallow="tram rail_urban rail rail_electric ship" speed="27.78" length="0.10" shape="3504.80,504.90 3504.80,504.89"/>
        <lane id=":799917339_0_1" index="1" disallow="tram rail_urban rail rail_electric ship" speed="27.78" length="0.10" shape="3502.05,503.07 3502.05,503.07"/>
        <lane id=":799917339_0_2" index="2" disallow="tram rail_urban rail rail_electric ship" speed="27.78" length="0.10" shape="3499.30,501.24 3499.30,501.24"/>
        <lane id=":799917339_0_3" index="3" disallow="tram rail_urban rail rail_electric ship" speed="27.78" length="0.10" shape="3496.56,499.41 3496.56,499.41"/>
    </edge>

    <edge id="130347317#0" from="479889056" to="3649910657" priority="9" type="highway.primary" spreadType="center" shape="3426.18,613.33 3423.36,617.56 3417.83,626.73 3405.94,650.83">
        <lane id="130347317#0_0" index="0" disallow="tram rail_urban rail rail_electric ship" speed="27.78" length="42.45" shape="3430.30,616.08 3427.54,620.21 3422.18,629.11 3410.49,652.80"/>
        <lane id="130347317#0_1" index="1" disallow="tram rail_urban rail rail_electric ship" speed="27.78" length="42.45" shape="3427.55,614.25 3424.75,618.44 3419.28,627.52 3407.53,651.34"/>
        <lane id="130347317#0_2" index="2" disallow="tram rail_urban rail rail_electric ship" speed="27.78" length="42.45" shape="3424.82,612.40 3421.97,616.67 3416.38,625.94 3404.57,649.88"/>
        <lane id="130347317#0_3" index="3" disallow="tram rail_urban rail rail_electric ship" speed="27.78" length="42.45" shape="3422.11,610.52 3419.18,614.90 3413.48,624.35 3401.61,648.42"/>
    </edge>
    <edge id="130347317#1" from="3649910657" to="1539633435" priority="9" type="highway.primary" spreadType="center">
        <lane id="130347317#1_0" index="0" disallow="tram rail_urban rail rail_electric ship" speed="27.78" length="5.22" shape="3410.44,652.91 3408.48,657.76"/>
        <lane id="130347317#1_1" index="1" disallow="tram rail_urban rail rail_electric ship" speed="27.78" length="5.22" shape="3407.38,651.68 3405.42,656.52"/>
        <lane id="130347317#1_2" index="2" disallow="tram rail_urban rail rail_electric ship" speed="27.78" length="5.22" shape="3404.32,650.44 3402.36,655.28"/>
        <lane id="130347317#1_3" index="3" disallow="tram rail_urban rail rail_electric ship" speed="27.78" length="5.22" shape="3401.26,649.20 3399.30,654.05"/>
    </edge>
    <edge id="130347317#10" from="3649910632" to="3649910631" priority="9" type="highway.primary" spreadType="center">
        <lane id="130347317#10_0" index="0" disallow="tram rail_urban rail rail_electric ship" speed="27.78" length="5.37" shape="3191.70,1018.24 3189.85,1023.13"/>
        <lane id="130347317#10_1" index="1" disallow="tram rail_urban rail rail_electric ship" speed="27.78" length="5.37" shape="3188.67,1016.92 3186.76,1021.97"/>
        <lane id="130347317#10_2" index="2" disallow="tram rail_urban rail rail_electric ship" speed="27.78" length="5.37" shape="3185.59,1015.73 3183.67,1020.80"/>
        <lane id="130347317#10_3" index="3" disallow="tram rail_urban rail rail_electric ship" speed="27.78" length="5.37" shape="3182.50,1014.56 3180.59,1019.64"/>
    </edge>
    <edge id="130347317#11" from="3649910631" to="218483427" priority="9" type="highway.primary" spreadType="center">
        <lane id="130347317#11_0" index="0" disallow="tram rail_urban rail rail_electric ship" speed="27.78" length="25.09" shape="3189.85,1023.13 3181.01,1046.61"/>
        <lane id="130347317#11_1" index="1" disallow="tram rail_urban rail rail_electric ship" speed="27.78" length="25.09" shape="3186.76,1021.97 3177.92,1045.45"/>
        <lane id="130347317#11_2" index="2" disallow="tram rail_urban rail rail_electric ship" speed="27.78" length="25.09" shape="3183.67,1020.80 3174.83,1044.29"/>
        <lane id="130347317#11_3" index="3" disallow="tram rail_urban rail rail_electric ship" speed="27.78" length="25.09" shape="3180.59,1019.64 3171.74,1043.12"/>
    </edge>
    <edge id="130347317#2" from="1539633435" to="331378779" priority="9" type="highway.primary" spreadType="center" shape="3403.75,656.25 3398.61,665.66 3396.37,669.89">
        <lane id="130347317#2_0" index="0" disallow="tram rail_urban rail rail_electric ship" speed="27.78" length="14.74" shape="3407.91,658.96 3402.97,668.02 3400.92,671.87"/>
        <lane id="130347317#2_1" index="1" disallow="tram rail_urban rail rail_electric ship" speed="27.78" length="14.74" shape="3405.02,657.38 3400.06,666.45 3398.00,670.32"/>